Using: /usr/bin/time -p /tools/linsoft2/synopsys/hspice/hspice/linux/hspice  -mt 2 input.ckt
