$DATA1 SOURCE='HSPICE' VERSION='B-2008.09 32-BIT'
.TITLE '** generated for: hspiced'
 iavg             vavg             etot             temper            
 alter#            
    failed           failed           failed          25.0000         
    1.0000         
