 ****** HSPICE -- B-2008.09 32-BIT (Aug 26 2008) linux ******                   
  Copyright (C) 2008 Synopsys, Inc. All Rights Reserved.                        
  Unpublished-rights reserved under US copyright laws.
  This program is protected by law and is subject to the 
  terms and conditions of the license agreement from Synopsys.
  Use of this program is your acceptance to be bound by the 
  license agreement. HSPICE is the trademark of Synopsys, Inc.
  Input File: input.ckt                                                         
 lic:  
 lic: FLEXlm: v8.5b 
 lic: USER:   jshinsato3           HOSTNAME: ccblincad13.ece.gatech.edu 
 lic: HOSTID: 001d092cd877         PID:      22788 
 lic: Using FLEXlm license file: 
 lic: 1900@ecelinsrv3.ece.gatech.edu 
 lic: Checkout 1 hspice 
 lic: License/Maintenance for hspice will expire on 12-jan-2016/2014.09 
 lic: FLOATING license(s) on SERVER ecelinsrv3.ece.gatech.edu 
 lic:   
 Init: read install configuration file: /tools/linsoft2/synopsys/hspice/hspice/meta.cfg
 Init: hspice initialization file: /tools/linsoft2/synopsys/hspice/hspice/hspice.ini
 .option runlvl
 ** generated on: apr 15 17:42:36 2015
 ** design library name: ece8893_lib
 ** design cell name: cla_8bits
 ** design view name: schematic
 .param vcc=1 vss=0
 *.option delmax=1e-6
 .op

 .temp 25.0
 .option
 +    artist=2
 +    ingold=2
 +    parhier=local
 +    psf=2
 .include "/nethome/jshinsato3/ece6130_cadence/freepdk45/ncsu_basekit/models/hspice/tran_models/models_nom/nmos_thkox.inc"
 * customized ptm 45 nmos nmos_thkox

 .model  nmos_thkox  nmos  level = 54

 +version = 4.0    binunit = 1    paramchk= 1    mobmod  = 0
 +capmod  = 2      igcmod  = 1    igbmod  = 1    geomod  = 1
 +diomod  = 1      rdsmod  = 0    rbodymod= 1    rgatemod= 1
 +permod  = 1      acnqsmod= 0    trnqsmod= 0

 * parameters related to the technology node
 +tnom = 27    epsrox = 3.9
 +eta0 = 0.0049    nfactor = 2.1    wint = 5e-09
 +cgso = 1.1e-10    cgdo = 1.1e-10    xl = -2e-08

 * parameters customized by the user
 +toxe = 6.65e-09    toxp = 6e-09    toxm = 6.65e-09    toxref = 6.65e-09
 +dtox = 6.5e-10    lint = 3.75e-09
 +vth0 = 1.507    k1 = 1.6    u0 = 0.05323    vsat = 147390
 +rdsw = 155    ndep = 2.08e+18    xj = 1.4e-08

 * secondary parameters
 +ll      = 0            wl      = 0            lln     = 1            wln     = 1          
 +lw      = 0            ww      = 0            lwn     = 1            wwn     = 1          
 +lwl     = 0            wwl     = 0            xpart   = 0               
 +k2      = 0.01         k3      = 0          
 +k3b     = 0            w0      = 2.5e-006     dvt0    = 1            dvt1    = 2       
 +dvt2    = -0.032       dvt0w   = 0            dvt1w   = 0            dvt2w   = 0          
 +dsub    = 0.1          minv    = 0.05         voffl   = 0            dvtp0   = 1.0e-009     
 +dvtp1   = 0.1          lpe0    = 0            lpeb    = 0               
 +ngate   = 2e+020       nsd     = 2e+020       phin    = 0          
 +cdsc    = 0.000        cdscb   = 0            cdscd   = 0            cit     = 0          
 +voff    = -0.13        etab    = 0          
 +vfb     = -0.55        ua      = 6e-010       ub      = 1.2e-018     
 +uc      = 0            a0      = 1.0          ags     = 1e-020     
 +a1      = 0            a2      = 1.0          b0      = 0            b1      = 0          
 +keta    = 0.04         dwg     = 0            dwb     = 0            pclm    = 0.04       
 +pdiblc1 = 0.001        pdiblc2 = 0.001        pdiblcb = -0.005       drout   = 0.5        
 +pvag    = 1e-020       delta   = 0.01         pscbe1  = 8.14e+008    pscbe2  = 1e-007     
 +fprout  = 0.2          pdits   = 0.08         pditsd  = 0.23         pditsl  = 2.3e+006   
 +rsh     = 5            rsw     = 85           rdw     = 85        
 +rdswmin = 0            rdwmin  = 0            rswmin  = 0            prwg    = 0          
 +prwb    = 6.8e-011     wr      = 1            alpha0  = 0.074        alpha1  = 0.005      
 +beta0   = 30           agidl   = 0.0002       bgidl   = 2.1e+009     cgidl   = 0.0002     
 +egidl   = 0.8          

 +aigbacc = 0.012        bigbacc = 0.0028       cigbacc = 0.002     
 +nigbacc = 1            aigbinv = 0.014        bigbinv = 0.004        cigbinv = 0.004      
 +eigbinv = 1.1          nigbinv = 3            aigc    = 0.012        bigc    = 0.0028     
 +cigc    = 0.002        aigsd   = 0.012        bigsd   = 0.0028       cigsd   = 0.002     
 +nigc    = 1            poxedge = 1            pigcd   = 1            ntox    = 1          

 +xrcrg1  = 12           xrcrg2  = 5          
 +cgbo    = 2.56e-011    cgdl    = 2.653e-10     
 +cgsl    = 2.653e-10    ckappas = 0.03         ckappad = 0.03         acde    = 1          
 +moin    = 15           noff    = 0.9          voffcv  = 0.02       

 +kt1     = -0.11        kt1l    = 0            kt2     = 0.022        ute     = -1.5       
 +ua1     = 4.31e-009    ub1     = 7.61e-018    uc1     = -5.6e-011    prt     = 0          
 +at      = 33000      

 +fnoimod = 1            tnoimod = 0          

 +jss     = 0.0001       jsws    = 1e-011       jswgs   = 1e-010       njs     = 1          
 +ijthsfwd= 0.01         ijthsrev= 0.001        bvs     = 10           xjbvs   = 1          
 +jsd     = 0.0001       jswd    = 1e-011       jswgd   = 1e-010       njd     = 1          
 +ijthdfwd= 0.01         ijthdrev= 0.001        bvd     = 10           xjbvd   = 1          
 +pbs     = 1            cjs     = 0.0005       mjs     = 0.5          pbsws   = 1          
 +cjsws   = 5e-010       mjsws   = 0.33         pbswgs  = 1            cjswgs  = 3e-010     
 +mjswgs  = 0.33         pbd     = 1            cjd     = 0.0005       mjd     = 0.5        
 +pbswd   = 1            cjswd   = 5e-010       mjswd   = 0.33         pbswgd  = 1          
 +cjswgd  = 5e-010       mjswgd  = 0.33         tpb     = 0.005        tcj     = 0.001      
 +tpbsw   = 0.005        tcjsw   = 0.001        tpbswg  = 0.005        tcjswg  = 0.001      
 +xtis    = 3            xtid    = 3          

 +dmcg    = 0e-006       dmci    = 0e-006       dmdg    = 0e-006       dmcgt   = 0e-007     
 +dwj     = 0.0e-008     xgw     = 0e-007       xgl     = 0e-008     

 +rshg    = 0.4          gbmin   = 1e-010       rbpb    = 5            rbpd    = 15         
 +rbps    = 15           rbdb    = 15           rbsb    = 15           ngcon   = 1          
 .include "/nethome/jshinsato3/ece6130_cadence/freepdk45/ncsu_basekit/models/hspice/tran_models/models_nom/nmos_vtg.inc"
 * customized ptm 45 nmos nmos_vtg

 .model  nmos_vtg  nmos  level = 54

 +version = 4.0    binunit = 1    paramchk= 1    mobmod  = 0
 +capmod  = 2      igcmod  = 1    igbmod  = 1    geomod  = 1
 +diomod  = 1      rdsmod  = 0    rbodymod= 1    rgatemod= 1
 +permod  = 1      acnqsmod= 0    trnqsmod= 0

 * parameters related to the technology node
 +tnom = 27    epsrox = 3.9
 +eta0 = 0.0049    nfactor = 2.1    wint = 5e-09
 +cgso = 1.1e-10    cgdo = 1.1e-10    xl = -2e-08

 * parameters customized by the user
 +toxe = 2.55e-09    toxp = 1.9e-09    toxm = 2.55e-09    toxref = 2.55e-09
 +dtox = 6.5e-10    lint = 3.75e-09
 +vth0 = 0.677    k1 = 0.74    u0 = 0.04539    vsat = 147390
 +rdsw = 155    ndep = 3.03e+18    xj = 1.4e-08

 * secondary parameters
 +ll      = 0            wl      = 0            lln     = 1            wln     = 1          
 +lw      = 0            ww      = 0            lwn     = 1            wwn     = 1          
 +lwl     = 0            wwl     = 0            xpart   = 0               
 +k2      = 0.01         k3      = 0          
 +k3b     = 0            w0      = 2.5e-006     dvt0    = 1            dvt1    = 2       
 +dvt2    = -0.032       dvt0w   = 0            dvt1w   = 0            dvt2w   = 0          
 +dsub    = 0.1          minv    = 0.05         voffl   = 0            dvtp0   = 1.0e-009     
 +dvtp1   = 0.1          lpe0    = 0            lpeb    = 0               
 +ngate   = 2e+020       nsd     = 2e+020       phin    = 0          
 +cdsc    = 0.000        cdscb   = 0            cdscd   = 0            cit     = 0          
 +voff    = -0.13        etab    = 0          
 +vfb     = -0.55        ua      = 6e-010       ub      = 1.2e-018     
 +uc      = 0            a0      = 1.0          ags     = 1e-020     
 +a1      = 0            a2      = 1.0          b0      = 0            b1      = 0          
 +keta    = 0.04         dwg     = 0            dwb     = 0            pclm    = 0.04       
 +pdiblc1 = 0.001        pdiblc2 = 0.001        pdiblcb = -0.005       drout   = 0.5        
 +pvag    = 1e-020       delta   = 0.01         pscbe1  = 8.14e+008    pscbe2  = 1e-007     
 +fprout  = 0.2          pdits   = 0.08         pditsd  = 0.23         pditsl  = 2.3e+006   
 +rsh     = 5            rsw     = 85           rdw     = 85        
 +rdswmin = 0            rdwmin  = 0            rswmin  = 0            prwg    = 0          
 +prwb    = 6.8e-011     wr      = 1            alpha0  = 0.074        alpha1  = 0.005      
 +beta0   = 30           agidl   = 0.0002       bgidl   = 2.1e+009     cgidl   = 0.0002     
 +egidl   = 0.8          

 +aigbacc = 0.012        bigbacc = 0.0028       cigbacc = 0.002     
 +nigbacc = 1            aigbinv = 0.014        bigbinv = 0.004        cigbinv = 0.004      
 +eigbinv = 1.1          nigbinv = 3            aigc    = 0.012        bigc    = 0.0028     
 +cigc    = 0.002        aigsd   = 0.012        bigsd   = 0.0028       cigsd   = 0.002     
 +nigc    = 1            poxedge = 1            pigcd   = 1            ntox    = 1          

 +xrcrg1  = 12           xrcrg2  = 5          
 +cgbo    = 2.56e-011    cgdl    = 2.653e-10     
 +cgsl    = 2.653e-10    ckappas = 0.03         ckappad = 0.03         acde    = 1          
 +moin    = 15           noff    = 0.9          voffcv  = 0.02       

 +kt1     = -0.11        kt1l    = 0            kt2     = 0.022        ute     = -1.5       
 +ua1     = 4.31e-009    ub1     = 7.61e-018    uc1     = -5.6e-011    prt     = 0          
 +at      = 33000      

 +fnoimod = 1            tnoimod = 0          

 +jss     = 0.0001       jsws    = 1e-011       jswgs   = 1e-010       njs     = 1          
 +ijthsfwd= 0.01         ijthsrev= 0.001        bvs     = 10           xjbvs   = 1          
 +jsd     = 0.0001       jswd    = 1e-011       jswgd   = 1e-010       njd     = 1          
 +ijthdfwd= 0.01         ijthdrev= 0.001        bvd     = 10           xjbvd   = 1          
 +pbs     = 1            cjs     = 0.0005       mjs     = 0.5          pbsws   = 1          
 +cjsws   = 5e-010       mjsws   = 0.33         pbswgs  = 1            cjswgs  = 3e-010     
 +mjswgs  = 0.33         pbd     = 1            cjd     = 0.0005       mjd     = 0.5        
 +pbswd   = 1            cjswd   = 5e-010       mjswd   = 0.33         pbswgd  = 1          
 +cjswgd  = 5e-010       mjswgd  = 0.33         tpb     = 0.005        tcj     = 0.001      
 +tpbsw   = 0.005        tcjsw   = 0.001        tpbswg  = 0.005        tcjswg  = 0.001      
 +xtis    = 3            xtid    = 3          

 +dmcg    = 0e-006       dmci    = 0e-006       dmdg    = 0e-006       dmcgt   = 0e-007     
 +dwj     = 0.0e-008     xgw     = 0e-007       xgl     = 0e-008     

 +rshg    = 0.4          gbmin   = 1e-010       rbpb    = 5            rbpd    = 15         
 +rbps    = 15           rbdb    = 15           rbsb    = 15           ngcon   = 1          
 .include "/nethome/jshinsato3/ece6130_cadence/freepdk45/ncsu_basekit/models/hspice/tran_models/models_nom/nmos_vth.inc"
 * customized ptm 45 nmos nmos_vth

 .model  nmos_vth  nmos  level = 54

 +version = 4.0    binunit = 1    paramchk= 1    mobmod  = 0
 +capmod  = 2      igcmod  = 1    igbmod  = 1    geomod  = 1
 +diomod  = 1      rdsmod  = 0    rbodymod= 1    rgatemod= 1
 +permod  = 1      acnqsmod= 0    trnqsmod= 0

 * parameters related to the technology node
 +tnom = 27    epsrox = 3.9
 +eta0 = 0.0049    nfactor = 2.1    wint = 5e-09
 +cgso = 1.1e-10    cgdo = 1.1e-10    xl = -2e-08

 * parameters customized by the user
 +toxe = 2.55e-09    toxp = 1.9e-09    toxm = 2.55e-09    toxref = 2.55e-09
 +dtox = 6.5e-10    lint = 3.75e-09
 +vth0 = 0.853    k1 = 0.898    u0 = 0.03723    vsat = 147390
 +rdsw = 155    ndep = 4.46e+18    xj = 1.4e-08

 * secondary parameters
 +ll      = 0            wl      = 0            lln     = 1            wln     = 1          
 +lw      = 0            ww      = 0            lwn     = 1            wwn     = 1          
 +lwl     = 0            wwl     = 0            xpart   = 0               
 +k2      = 0.01         k3      = 0          
 +k3b     = 0            w0      = 2.5e-006     dvt0    = 1            dvt1    = 2       
 +dvt2    = -0.032       dvt0w   = 0            dvt1w   = 0            dvt2w   = 0          
 +dsub    = 0.1          minv    = 0.05         voffl   = 0            dvtp0   = 1.0e-009     
 +dvtp1   = 0.1          lpe0    = 0            lpeb    = 0               
 +ngate   = 2e+020       nsd     = 2e+020       phin    = 0          
 +cdsc    = 0.000        cdscb   = 0            cdscd   = 0            cit     = 0          
 +voff    = -0.13        etab    = 0          
 +vfb     = -0.55        ua      = 6e-010       ub      = 1.2e-018     
 +uc      = 0            a0      = 1.0          ags     = 1e-020     
 +a1      = 0            a2      = 1.0          b0      = 0            b1      = 0          
 +keta    = 0.04         dwg     = 0            dwb     = 0            pclm    = 0.04       
 +pdiblc1 = 0.001        pdiblc2 = 0.001        pdiblcb = -0.005       drout   = 0.5        
 +pvag    = 1e-020       delta   = 0.01         pscbe1  = 8.14e+008    pscbe2  = 1e-007     
 +fprout  = 0.2          pdits   = 0.08         pditsd  = 0.23         pditsl  = 2.3e+006   
 +rsh     = 5            rsw     = 85           rdw     = 85        
 +rdswmin = 0            rdwmin  = 0            rswmin  = 0            prwg    = 0          
 +prwb    = 6.8e-011     wr      = 1            alpha0  = 0.074        alpha1  = 0.005      
 +beta0   = 30           agidl   = 0.0002       bgidl   = 2.1e+009     cgidl   = 0.0002     
 +egidl   = 0.8          

 +aigbacc = 0.012        bigbacc = 0.0028       cigbacc = 0.002     
 +nigbacc = 1            aigbinv = 0.014        bigbinv = 0.004        cigbinv = 0.004      
 +eigbinv = 1.1          nigbinv = 3            aigc    = 0.012        bigc    = 0.0028     
 +cigc    = 0.002        aigsd   = 0.012        bigsd   = 0.0028       cigsd   = 0.002     
 +nigc    = 1            poxedge = 1            pigcd   = 1            ntox    = 1          

 +xrcrg1  = 12           xrcrg2  = 5          
 +cgbo    = 2.56e-011    cgdl    = 2.653e-10     
 +cgsl    = 2.653e-10    ckappas = 0.03         ckappad = 0.03         acde    = 1          
 +moin    = 15           noff    = 0.9          voffcv  = 0.02       

 +kt1     = -0.11        kt1l    = 0            kt2     = 0.022        ute     = -1.5       
 +ua1     = 4.31e-009    ub1     = 7.61e-018    uc1     = -5.6e-011    prt     = 0          
 +at      = 33000      

 +fnoimod = 1            tnoimod = 0          

 +jss     = 0.0001       jsws    = 1e-011       jswgs   = 1e-010       njs     = 1          
 +ijthsfwd= 0.01         ijthsrev= 0.001        bvs     = 10           xjbvs   = 1          
 +jsd     = 0.0001       jswd    = 1e-011       jswgd   = 1e-010       njd     = 1          
 +ijthdfwd= 0.01         ijthdrev= 0.001        bvd     = 10           xjbvd   = 1          
 +pbs     = 1            cjs     = 0.0005       mjs     = 0.5          pbsws   = 1          
 +cjsws   = 5e-010       mjsws   = 0.33         pbswgs  = 1            cjswgs  = 3e-010     
 +mjswgs  = 0.33         pbd     = 1            cjd     = 0.0005       mjd     = 0.5        
 +pbswd   = 1            cjswd   = 5e-010       mjswd   = 0.33         pbswgd  = 1          
 +cjswgd  = 5e-010       mjswgd  = 0.33         tpb     = 0.005        tcj     = 0.001      
 +tpbsw   = 0.005        tcjsw   = 0.001        tpbswg  = 0.005        tcjswg  = 0.001      
 +xtis    = 3            xtid    = 3          

 +dmcg    = 0e-006       dmci    = 0e-006       dmdg    = 0e-006       dmcgt   = 0e-007     
 +dwj     = 0.0e-008     xgw     = 0e-007       xgl     = 0e-008     

 +rshg    = 0.4          gbmin   = 1e-010       rbpb    = 5            rbpd    = 15         
 +rbps    = 15           rbdb    = 15           rbsb    = 15           ngcon   = 1          
 .include "/nethome/jshinsato3/ece6130_cadence/freepdk45/ncsu_basekit/models/hspice/tran_models/models_nom/nmos_vtl.inc"
 * customized ptm 45 nmos

 .model  nmos_vtl  nmos  level = 54

 +version = 4.0    binunit = 1    paramchk= 1    mobmod  = 0
 +capmod  = 2      igcmod  = 1    igbmod  = 1    geomod  = 1
 +diomod  = 1      rdsmod  = 0    rbodymod= 1    rgatemod= 1
 +permod  = 1      acnqsmod= 0    trnqsmod= 0

 * parameters related to the technology node
 +tnom = 27    epsrox = 3.9
 +eta0 = 0.0049    nfactor = 2.1    wint = 5e-09
 +cgso = 1.1e-10    cgdo = 1.1e-10    xl = -2e-08

 * parameters customized by the user
 +toxe = 1.75e-09    toxp = 1.1e-09    toxm = 1.75e-09    toxref = 1.75e-09
 +dtox = 6.5e-10    lint = 3.75e-09
 +vth0 = 0.471    k1 = 0.53    u0 = 0.04359    vsat = 147390
 +rdsw = 155    ndep = 3.3e+18    xj = 1.4e-08

 * secondary parameters
 +ll      = 0            wl      = 0            lln     = 1            wln     = 1          
 +lw      = 0            ww      = 0            lwn     = 1            wwn     = 1          
 +lwl     = 0            wwl     = 0            xpart   = 0               
 +k2      = 0.01         k3      = 0          
 +k3b     = 0            w0      = 2.5e-006     dvt0    = 1            dvt1    = 2       
 +dvt2    = -0.032       dvt0w   = 0            dvt1w   = 0            dvt2w   = 0          
 +dsub    = 0.1          minv    = 0.05         voffl   = 0            dvtp0   = 1.0e-009     
 +dvtp1   = 0.1          lpe0    = 0            lpeb    = 0               
 +ngate   = 2e+020       nsd     = 2e+020       phin    = 0          
 +cdsc    = 0.000        cdscb   = 0            cdscd   = 0            cit     = 0          
 +voff    = -0.13        etab    = 0          
 +vfb     = -0.55        ua      = 6e-010       ub      = 1.2e-018     
 +uc      = 0            a0      = 1.0          ags     = 1e-020     
 +a1      = 0            a2      = 1.0          b0      = 0            b1      = 0          
 +keta    = 0.04         dwg     = 0            dwb     = 0            pclm    = 0.04       
 +pdiblc1 = 0.001        pdiblc2 = 0.001        pdiblcb = -0.005       drout   = 0.5        
 +pvag    = 1e-020       delta   = 0.01         pscbe1  = 8.14e+008    pscbe2  = 1e-007     
 +fprout  = 0.2          pdits   = 0.08         pditsd  = 0.23         pditsl  = 2.3e+006   
 +rsh     = 5            rsw     = 85           rdw     = 85        
 +rdswmin = 0            rdwmin  = 0            rswmin  = 0            prwg    = 0          
 +prwb    = 6.8e-011     wr      = 1            alpha0  = 0.074        alpha1  = 0.005      
 +beta0   = 30           agidl   = 0.0002       bgidl   = 2.1e+009     cgidl   = 0.0002     
 +egidl   = 0.8          

 +aigbacc = 0.012        bigbacc = 0.0028       cigbacc = 0.002     
 +nigbacc = 1            aigbinv = 0.014        bigbinv = 0.004        cigbinv = 0.004      
 +eigbinv = 1.1          nigbinv = 3            aigc    = 0.012        bigc    = 0.0028     
 +cigc    = 0.002        aigsd   = 0.012        bigsd   = 0.0028       cigsd   = 0.002     
 +nigc    = 1            poxedge = 1            pigcd   = 1            ntox    = 1          

 +xrcrg1  = 12           xrcrg2  = 5          
 +cgbo    = 2.56e-011    cgdl    = 2.653e-10     
 +cgsl    = 2.653e-10    ckappas = 0.03         ckappad = 0.03         acde    = 1          
 +moin    = 15           noff    = 0.9          voffcv  = 0.02       

 +kt1     = -0.11        kt1l    = 0            kt2     = 0.022        ute     = -1.5       
 +ua1     = 4.31e-009    ub1     = 7.61e-018    uc1     = -5.6e-011    prt     = 0          
 +at      = 33000      

 +fnoimod = 1            tnoimod = 0          

 +jss     = 0.0001       jsws    = 1e-011       jswgs   = 1e-010       njs     = 1          
 +ijthsfwd= 0.01         ijthsrev= 0.001        bvs     = 10           xjbvs   = 1          
 +jsd     = 0.0001       jswd    = 1e-011       jswgd   = 1e-010       njd     = 1          
 +ijthdfwd= 0.01         ijthdrev= 0.001        bvd     = 10           xjbvd   = 1          
 +pbs     = 1            cjs     = 0.0005       mjs     = 0.5          pbsws   = 1          
 +cjsws   = 5e-010       mjsws   = 0.33         pbswgs  = 1            cjswgs  = 3e-010     
 +mjswgs  = 0.33         pbd     = 1            cjd     = 0.0005       mjd     = 0.5        
 +pbswd   = 1            cjswd   = 5e-010       mjswd   = 0.33         pbswgd  = 1          
 +cjswgd  = 5e-010       mjswgd  = 0.33         tpb     = 0.005        tcj     = 0.001      
 +tpbsw   = 0.005        tcjsw   = 0.001        tpbswg  = 0.005        tcjswg  = 0.001      
 +xtis    = 3            xtid    = 3          

 +dmcg    = 0e-006       dmci    = 0e-006       dmdg    = 0e-006       dmcgt   = 0e-007     
 +dwj     = 0.0e-008     xgw     = 0e-007       xgl     = 0e-008     

 +rshg    = 0.4          gbmin   = 1e-010       rbpb    = 5            rbpd    = 15         
 +rbps    = 15           rbdb    = 15           rbsb    = 15           ngcon   = 1          
 .include "/nethome/jshinsato3/ece6130_cadence/freepdk45/ncsu_basekit/models/hspice/tran_models/models_nom/pmos_thkox.inc"
 * customized ptm 45 pmos pmos_thkox

 .model  pmos_thkox  pmos  level = 54

 +version = 4.0    binunit = 1    paramchk= 1    mobmod  = 0
 +capmod  = 2      igcmod  = 1    igbmod  = 1    geomod  = 1
 +diomod  = 1      rdsmod  = 0    rbodymod= 1    rgatemod= 1
 +permod  = 1      acnqsmod= 0    trnqsmod= 0

 * parameters related to the technology node
 +tnom = 27    epsrox = 3.9
 +eta0 = 0.0049    nfactor = 2.1    wint = 5e-09
 +cgso = 1.1e-10    cgdo = 1.1e-10    xl = -2e-08

 * parameters customized by the user
 +toxe = 6.75e-09    toxp = 6e-09    toxm = 6.75e-09    toxref = 6.75e-09
 +dtox = 7.5e-10    lint = 3.75e-09
 +vth0 = -1.445    k1 = 1.544    u0 = 0.00571    vsat = 70000
 +rdsw = 155    ndep = 1.88e+18    xj = 1.4e-08

 *secondary parameters
 +ll      = 0            wl      = 0            lln     = 1            wln     = 1          
 +lw      = 0            ww      = 0            lwn     = 1            wwn     = 1          
 +lwl     = 0            wwl     = 0            xpart   = 0               
 +k2      = -0.01        k3      = 0          
 +k3b     = 0            w0      = 2.5e-006     dvt0    = 1            dvt1    = 2       
 +dvt2    = -0.032       dvt0w   = 0            dvt1w   = 0            dvt2w   = 0          
 +dsub    = 0.1          minv    = 0.05         voffl   = 0            dvtp0   = 1e-009     
 +dvtp1   = 0.05         lpe0    = 0            lpeb    = 0               
 +ngate   = 2e+020       nsd     = 2e+020       phin    = 0          
 +cdsc    = 0.000        cdscb   = 0            cdscd   = 0            cit     = 0          
 +voff    = -0.126       etab    = 0          
 +vfb     = 0.55         ua      = 2.0e-009     ub      = 0.5e-018     
 +uc      = 0            a0      = 1.0          ags     = 1e-020     
 +a1      = 0            a2      = 1            b0      = -1e-020      b1      = 0          
 +keta    = -0.047       dwg     = 0            dwb     = 0            pclm    = 0.12       
 +pdiblc1 = 0.001        pdiblc2 = 0.001        pdiblcb = 3.4e-008     drout   = 0.56       
 +pvag    = 1e-020       delta   = 0.01         pscbe1  = 8.14e+008    pscbe2  = 9.58e-007  
 +fprout  = 0.2          pdits   = 0.08         pditsd  = 0.23         pditsl  = 2.3e+006   
 +rsh     = 5            rsw     = 85           rdw     = 85        
 +rdswmin = 0            rdwmin  = 0            rswmin  = 0            prwg    = 3.22e-008  
 +prwb    = 6.8e-011     wr      = 1            alpha0  = 0.074        alpha1  = 0.005      
 +beta0   = 30           agidl   = 0.0002       bgidl   = 2.1e+009     cgidl   = 0.0002     
 +egidl   = 0.8          

 +aigbacc = 0.012        bigbacc = 0.0028       cigbacc = 0.002     
 +nigbacc = 1            aigbinv = 0.014        bigbinv = 0.004        cigbinv = 0.004      
 +eigbinv = 1.1          nigbinv = 3            aigc    = 0.69         bigc    = 0.0012     
 +cigc    = 0.0008       aigsd   = 0.0087       bigsd   = 0.0012       cigsd   = 0.0008     
 +nigc    = 1            poxedge = 1            pigcd   = 1            ntox    = 1 
          
 +xrcrg1  = 12           xrcrg2  = 5          
 +cgbo    = 2.56e-011    cgdl    = 2.653e-10
 +cgsl    = 2.653e-10    ckappas = 0.03         ckappad = 0.03         acde    = 1
 +moin    = 15           noff    = 0.9          voffcv  = 0.02

 +kt1     = -0.11        kt1l    = 0            kt2     = 0.022        ute     = -1.5       
 +ua1     = 4.31e-009    ub1     = 7.61e-018    uc1     = -5.6e-011    prt     = 0          
 +at      = 33000      

 +fnoimod = 1            tnoimod = 0          

 +jss     = 0.0001       jsws    = 1e-011       jswgs   = 1e-010       njs     = 1          
 +ijthsfwd= 0.01         ijthsrev= 0.001        bvs     = 10           xjbvs   = 1          
 +jsd     = 0.0001       jswd    = 1e-011       jswgd   = 1e-010       njd     = 1          
 +ijthdfwd= 0.01         ijthdrev= 0.001        bvd     = 10           xjbvd   = 1          
 +pbs     = 1            cjs     = 0.0005       mjs     = 0.5          pbsws   = 1          
 +cjsws   = 5e-010       mjsws   = 0.33         pbswgs  = 1            cjswgs  = 3e-010     
 +mjswgs  = 0.33         pbd     = 1            cjd     = 0.0005       mjd     = 0.5        
 +pbswd   = 1            cjswd   = 5e-010       mjswd   = 0.33         pbswgd  = 1          
 +cjswgd  = 5e-010       mjswgd  = 0.33         tpb     = 0.005        tcj     = 0.001      
 +tpbsw   = 0.005        tcjsw   = 0.001        tpbswg  = 0.005        tcjswg  = 0.001      
 +xtis    = 3            xtid    = 3          

 +dmcg    = 0e-006       dmci    = 0e-006       dmdg    = 0e-006       dmcgt   = 0e-007     
 +dwj     = 0.0e-008     xgw     = 0e-007       xgl     = 0e-008     

 +rshg    = 0.4          gbmin   = 1e-010       rbpb    = 5            rbpd    = 15         
 +rbps    = 15           rbdb    = 15           rbsb    = 15           ngcon   = 1          



 .include "/nethome/jshinsato3/ece6130_cadence/freepdk45/ncsu_basekit/models/hspice/tran_models/models_nom/pmos_vtg.inc"
 * customized ptm 45 pmos pmos_vtg

 .model  pmos_vtg  pmos  level = 54

 +version = 4.0    binunit = 1    paramchk= 1    mobmod  = 0
 +capmod  = 2      igcmod  = 1    igbmod  = 1    geomod  = 1
 +diomod  = 1      rdsmod  = 0    rbodymod= 1    rgatemod= 1
 +permod  = 1      acnqsmod= 0    trnqsmod= 0

 * parameters related to the technology node
 +tnom = 27    epsrox = 3.9
 +eta0 = 0.0049    nfactor = 2.1    wint = 5e-09
 +cgso = 1.1e-10    cgdo = 1.1e-10    xl = -2e-08

 * parameters customized by the user
 +toxe = 2.65e-09    toxp = 1.9e-09    toxm = 2.65e-09    toxref = 2.65e-09
 +dtox = 7.5e-10    lint = 3.75e-09
 +vth0 = -0.622    k1 = 0.694    u0 = 0.00444    vsat = 70000
 +rdsw = 155    ndep = 2.47e+18    xj = 1.4e-08

 *secondary parameters
 +ll      = 0            wl      = 0            lln     = 1            wln     = 1          
 +lw      = 0            ww      = 0            lwn     = 1            wwn     = 1          
 +lwl     = 0            wwl     = 0            xpart   = 0               
 +k2      = -0.01        k3      = 0          
 +k3b     = 0            w0      = 2.5e-006     dvt0    = 1            dvt1    = 2       
 +dvt2    = -0.032       dvt0w   = 0            dvt1w   = 0            dvt2w   = 0          
 +dsub    = 0.1          minv    = 0.05         voffl   = 0            dvtp0   = 1e-009     
 +dvtp1   = 0.05         lpe0    = 0            lpeb    = 0               
 +ngate   = 2e+020       nsd     = 2e+020       phin    = 0          
 +cdsc    = 0.000        cdscb   = 0            cdscd   = 0            cit     = 0          
 +voff    = -0.126       etab    = 0          
 +vfb     = 0.55         ua      = 2.0e-009     ub      = 0.5e-018     
 +uc      = 0            a0      = 1.0          ags     = 1e-020     
 +a1      = 0            a2      = 1            b0      = -1e-020      b1      = 0          
 +keta    = -0.047       dwg     = 0            dwb     = 0            pclm    = 0.12       
 +pdiblc1 = 0.001        pdiblc2 = 0.001        pdiblcb = 3.4e-008     drout   = 0.56       
 +pvag    = 1e-020       delta   = 0.01         pscbe1  = 8.14e+008    pscbe2  = 9.58e-007  
 +fprout  = 0.2          pdits   = 0.08         pditsd  = 0.23         pditsl  = 2.3e+006   
 +rsh     = 5            rsw     = 85           rdw     = 85        
 +rdswmin = 0            rdwmin  = 0            rswmin  = 0            prwg    = 3.22e-008  
 +prwb    = 6.8e-011     wr      = 1            alpha0  = 0.074        alpha1  = 0.005      
 +beta0   = 30           agidl   = 0.0002       bgidl   = 2.1e+009     cgidl   = 0.0002     
 +egidl   = 0.8          

 +aigbacc = 0.012        bigbacc = 0.0028       cigbacc = 0.002     
 +nigbacc = 1            aigbinv = 0.014        bigbinv = 0.004        cigbinv = 0.004      
 +eigbinv = 1.1          nigbinv = 3            aigc    = 0.69         bigc    = 0.0012     
 +cigc    = 0.0008       aigsd   = 0.0087       bigsd   = 0.0012       cigsd   = 0.0008     
 +nigc    = 1            poxedge = 1            pigcd   = 1            ntox    = 1 
          
 +xrcrg1  = 12           xrcrg2  = 5          
 +cgbo    = 2.56e-011    cgdl    = 2.653e-10
 +cgsl    = 2.653e-10    ckappas = 0.03         ckappad = 0.03         acde    = 1
 +moin    = 15           noff    = 0.9          voffcv  = 0.02

 +kt1     = -0.11        kt1l    = 0            kt2     = 0.022        ute     = -1.5       
 +ua1     = 4.31e-009    ub1     = 7.61e-018    uc1     = -5.6e-011    prt     = 0          
 +at      = 33000      

 +fnoimod = 1            tnoimod = 0          

 +jss     = 0.0001       jsws    = 1e-011       jswgs   = 1e-010       njs     = 1          
 +ijthsfwd= 0.01         ijthsrev= 0.001        bvs     = 10           xjbvs   = 1          
 +jsd     = 0.0001       jswd    = 1e-011       jswgd   = 1e-010       njd     = 1          
 +ijthdfwd= 0.01         ijthdrev= 0.001        bvd     = 10           xjbvd   = 1          
 +pbs     = 1            cjs     = 0.0005       mjs     = 0.5          pbsws   = 1          
 +cjsws   = 5e-010       mjsws   = 0.33         pbswgs  = 1            cjswgs  = 3e-010     
 +mjswgs  = 0.33         pbd     = 1            cjd     = 0.0005       mjd     = 0.5        
 +pbswd   = 1            cjswd   = 5e-010       mjswd   = 0.33         pbswgd  = 1          
 +cjswgd  = 5e-010       mjswgd  = 0.33         tpb     = 0.005        tcj     = 0.001      
 +tpbsw   = 0.005        tcjsw   = 0.001        tpbswg  = 0.005        tcjswg  = 0.001      
 +xtis    = 3            xtid    = 3          

 +dmcg    = 0e-006       dmci    = 0e-006       dmdg    = 0e-006       dmcgt   = 0e-007     
 +dwj     = 0.0e-008     xgw     = 0e-007       xgl     = 0e-008     

 +rshg    = 0.4          gbmin   = 1e-010       rbpb    = 5            rbpd    = 15         
 +rbps    = 15           rbdb    = 15           rbsb    = 15           ngcon   = 1          



 .include "/nethome/jshinsato3/ece6130_cadence/freepdk45/ncsu_basekit/models/hspice/tran_models/models_nom/pmos_vth.inc"
 * customized ptm 45 pmos pmos_vth

 .model  pmos_vth  pmos  level = 54

 +version = 4.0    binunit = 1    paramchk= 1    mobmod  = 0
 +capmod  = 2      igcmod  = 1    igbmod  = 1    geomod  = 1
 +diomod  = 1      rdsmod  = 0    rbodymod= 1    rgatemod= 1
 +permod  = 1      acnqsmod= 0    trnqsmod= 0

 * parameters related to the technology node
 +tnom = 27    epsrox = 3.9
 +eta0 = 0.0049    nfactor = 2.1    wint = 5e-09
 +cgso = 1.1e-10    cgdo = 1.1e-10    xl = -2e-08

 * parameters customized by the user
 +toxe = 2.65e-09    toxp = 1.9e-09    toxm = 2.65e-09    toxref = 2.65e-09
 +dtox = 7.5e-10    lint = 3.75e-09
 +vth0 = -0.771    k1 = 0.828    u0 = 0.00304    vsat = 70000
 +rdsw = 155    ndep = 3.51e+18    xj = 1.4e-08

 *secondary parameters
 +ll      = 0            wl      = 0            lln     = 1            wln     = 1          
 +lw      = 0            ww      = 0            lwn     = 1            wwn     = 1          
 +lwl     = 0            wwl     = 0            xpart   = 0               
 +k2      = -0.01        k3      = 0          
 +k3b     = 0            w0      = 2.5e-006     dvt0    = 1            dvt1    = 2       
 +dvt2    = -0.032       dvt0w   = 0            dvt1w   = 0            dvt2w   = 0          
 +dsub    = 0.1          minv    = 0.05         voffl   = 0            dvtp0   = 1e-009     
 +dvtp1   = 0.05         lpe0    = 0            lpeb    = 0               
 +ngate   = 2e+020       nsd     = 2e+020       phin    = 0          
 +cdsc    = 0.000        cdscb   = 0            cdscd   = 0            cit     = 0          
 +voff    = -0.126       etab    = 0          
 +vfb     = 0.55         ua      = 2.0e-009     ub      = 0.5e-018     
 +uc      = 0            a0      = 1.0          ags     = 1e-020     
 +a1      = 0            a2      = 1            b0      = -1e-020      b1      = 0          
 +keta    = -0.047       dwg     = 0            dwb     = 0            pclm    = 0.12       
 +pdiblc1 = 0.001        pdiblc2 = 0.001        pdiblcb = 3.4e-008     drout   = 0.56       
 +pvag    = 1e-020       delta   = 0.01         pscbe1  = 8.14e+008    pscbe2  = 9.58e-007  
 +fprout  = 0.2          pdits   = 0.08         pditsd  = 0.23         pditsl  = 2.3e+006   
 +rsh     = 5            rsw     = 85           rdw     = 85        
 +rdswmin = 0            rdwmin  = 0            rswmin  = 0            prwg    = 3.22e-008  
 +prwb    = 6.8e-011     wr      = 1            alpha0  = 0.074        alpha1  = 0.005      
 +beta0   = 30           agidl   = 0.0002       bgidl   = 2.1e+009     cgidl   = 0.0002     
 +egidl   = 0.8          

 +aigbacc = 0.012        bigbacc = 0.0028       cigbacc = 0.002     
 +nigbacc = 1            aigbinv = 0.014        bigbinv = 0.004        cigbinv = 0.004      
 +eigbinv = 1.1          nigbinv = 3            aigc    = 0.69         bigc    = 0.0012     
 +cigc    = 0.0008       aigsd   = 0.0087       bigsd   = 0.0012       cigsd   = 0.0008     
 +nigc    = 1            poxedge = 1            pigcd   = 1            ntox    = 1 
          
 +xrcrg1  = 12           xrcrg2  = 5          
 +cgbo    = 2.56e-011    cgdl    = 2.653e-10
 +cgsl    = 2.653e-10    ckappas = 0.03         ckappad = 0.03         acde    = 1
 +moin    = 15           noff    = 0.9          voffcv  = 0.02

 +kt1     = -0.11        kt1l    = 0            kt2     = 0.022        ute     = -1.5       
 +ua1     = 4.31e-009    ub1     = 7.61e-018    uc1     = -5.6e-011    prt     = 0          
 +at      = 33000      

 +fnoimod = 1            tnoimod = 0          

 +jss     = 0.0001       jsws    = 1e-011       jswgs   = 1e-010       njs     = 1          
 +ijthsfwd= 0.01         ijthsrev= 0.001        bvs     = 10           xjbvs   = 1          
 +jsd     = 0.0001       jswd    = 1e-011       jswgd   = 1e-010       njd     = 1          
 +ijthdfwd= 0.01         ijthdrev= 0.001        bvd     = 10           xjbvd   = 1          
 +pbs     = 1            cjs     = 0.0005       mjs     = 0.5          pbsws   = 1          
 +cjsws   = 5e-010       mjsws   = 0.33         pbswgs  = 1            cjswgs  = 3e-010     
 +mjswgs  = 0.33         pbd     = 1            cjd     = 0.0005       mjd     = 0.5        
 +pbswd   = 1            cjswd   = 5e-010       mjswd   = 0.33         pbswgd  = 1          
 +cjswgd  = 5e-010       mjswgd  = 0.33         tpb     = 0.005        tcj     = 0.001      
 +tpbsw   = 0.005        tcjsw   = 0.001        tpbswg  = 0.005        tcjswg  = 0.001      
 +xtis    = 3            xtid    = 3          

 +dmcg    = 0e-006       dmci    = 0e-006       dmdg    = 0e-006       dmcgt   = 0e-007     
 +dwj     = 0.0e-008     xgw     = 0e-007       xgl     = 0e-008     

 +rshg    = 0.4          gbmin   = 1e-010       rbpb    = 5            rbpd    = 15         
 +rbps    = 15           rbdb    = 15           rbsb    = 15           ngcon   = 1          



 .include "/nethome/jshinsato3/ece6130_cadence/freepdk45/ncsu_basekit/models/hspice/tran_models/models_nom/pmos_vtl.inc"
 * customized ptm 45 pmos

 .model  pmos_vtl  pmos  level = 54

 +version = 4.0    binunit = 1    paramchk= 1    mobmod  = 0
 +capmod  = 2      igcmod  = 1    igbmod  = 1    geomod  = 1
 +diomod  = 1      rdsmod  = 0    rbodymod= 1    rgatemod= 1
 +permod  = 1      acnqsmod= 0    trnqsmod= 0

 * parameters related to the technology node
 +tnom = 27    epsrox = 3.9
 +eta0 = 0.0049    nfactor = 2.1    wint = 5e-09
 +cgso = 1.1e-10    cgdo = 1.1e-10    xl = -2e-08

 * parameters customized by the user
 +toxe = 1.85e-09    toxp = 1.1e-09    toxm = 1.85e-09    toxref = 1.85e-09
 +dtox = 7.5e-10    lint = 3.75e-09
 +vth0 = -0.423    k1 = 0.491    u0 = 0.00432    vsat = 70000
 +rdsw = 155    ndep = 2.54e+18    xj = 1.4e-08

 *secondary parameters
 +ll      = 0            wl      = 0            lln     = 1            wln     = 1          
 +lw      = 0            ww      = 0            lwn     = 1            wwn     = 1          
 +lwl     = 0            wwl     = 0            xpart   = 0               
 +k2      = -0.01        k3      = 0          
 +k3b     = 0            w0      = 2.5e-006     dvt0    = 1            dvt1    = 2       
 +dvt2    = -0.032       dvt0w   = 0            dvt1w   = 0            dvt2w   = 0          
 +dsub    = 0.1          minv    = 0.05         voffl   = 0            dvtp0   = 1e-009     
 +dvtp1   = 0.05         lpe0    = 0            lpeb    = 0               
 +ngate   = 2e+020       nsd     = 2e+020       phin    = 0          
 +cdsc    = 0.000        cdscb   = 0            cdscd   = 0            cit     = 0          
 +voff    = -0.126       etab    = 0          
 +vfb     = 0.55         ua      = 2.0e-009     ub      = 0.5e-018     
 +uc      = 0            a0      = 1.0          ags     = 1e-020     
 +a1      = 0            a2      = 1            b0      = -1e-020      b1      = 0          
 +keta    = -0.047       dwg     = 0            dwb     = 0            pclm    = 0.12       
 +pdiblc1 = 0.001        pdiblc2 = 0.001        pdiblcb = 3.4e-008     drout   = 0.56       
 +pvag    = 1e-020       delta   = 0.01         pscbe1  = 8.14e+008    pscbe2  = 9.58e-007  
 +fprout  = 0.2          pdits   = 0.08         pditsd  = 0.23         pditsl  = 2.3e+006   
 +rsh     = 5            rsw     = 85           rdw     = 85        
 +rdswmin = 0            rdwmin  = 0            rswmin  = 0            prwg    = 3.22e-008  
 +prwb    = 6.8e-011     wr      = 1            alpha0  = 0.074        alpha1  = 0.005      
 +beta0   = 30           agidl   = 0.0002       bgidl   = 2.1e+009     cgidl   = 0.0002     
 +egidl   = 0.8          

 +aigbacc = 0.012        bigbacc = 0.0028       cigbacc = 0.002     
 +nigbacc = 1            aigbinv = 0.014        bigbinv = 0.004        cigbinv = 0.004      
 +eigbinv = 1.1          nigbinv = 3            aigc    = 0.69         bigc    = 0.0012     
 +cigc    = 0.0008       aigsd   = 0.0087       bigsd   = 0.0012       cigsd   = 0.0008     
 +nigc    = 1            poxedge = 1            pigcd   = 1            ntox    = 1 
          
 +xrcrg1  = 12           xrcrg2  = 5          
 +cgbo    = 2.56e-011    cgdl    = 2.653e-10
 +cgsl    = 2.653e-10    ckappas = 0.03         ckappad = 0.03         acde    = 1
 +moin    = 15           noff    = 0.9          voffcv  = 0.02

 +kt1     = -0.11        kt1l    = 0            kt2     = 0.022        ute     = -1.5       
 +ua1     = 4.31e-009    ub1     = 7.61e-018    uc1     = -5.6e-011    prt     = 0          
 +at      = 33000      

 +fnoimod = 1            tnoimod = 0          

 +jss     = 0.0001       jsws    = 1e-011       jswgs   = 1e-010       njs     = 1          
 +ijthsfwd= 0.01         ijthsrev= 0.001        bvs     = 10           xjbvs   = 1          
 +jsd     = 0.0001       jswd    = 1e-011       jswgd   = 1e-010       njd     = 1          
 +ijthdfwd= 0.01         ijthdrev= 0.001        bvd     = 10           xjbvd   = 1          
 +pbs     = 1            cjs     = 0.0005       mjs     = 0.5          pbsws   = 1          
 +cjsws   = 5e-010       mjsws   = 0.33         pbswgs  = 1            cjswgs  = 3e-010     
 +mjswgs  = 0.33         pbd     = 1            cjd     = 0.0005       mjd     = 0.5        
 +pbswd   = 1            cjswd   = 5e-010       mjswd   = 0.33         pbswgd  = 1          
 +cjswgd  = 5e-010       mjswgd  = 0.33         tpb     = 0.005        tcj     = 0.001      
 +tpbsw   = 0.005        tcjsw   = 0.001        tpbswg  = 0.005        tcjswg  = 0.001      
 +xtis    = 3            xtid    = 3          

 +dmcg    = 0e-006       dmci    = 0e-006       dmdg    = 0e-006       dmcgt   = 0e-007     
 +dwj     = 0.0e-008     xgw     = 0e-007       xgl     = 0e-008     

 +rshg    = 0.4          gbmin   = 1e-010       rbpb    = 5            rbpd    = 15         
 +rbps    = 15           rbdb    = 15           rbsb    = 15           ngcon   = 1          




 ** library name: ece8893_lib
 ** cell name: inv1
 ** view name: schematic
 .subckt inv1 a out vground vsupply
 m1 out a vsupply vsupply pmos_vth l=45e-9 w=360e-9
 m3 out a vground vground nmos_vth l=45e-9 w=90e-9
 .ends inv1
 ** end of subcircuit definition.

 ** library name: ece8893_lib
 ** cell name: xor2
 ** view name: schematic
 .subckt xor2 a b out vground vsupply
 m4 out net24 net41 vsupply pmos_vth l=45e-9 w=360e-9
 m3 net41 b vsupply vsupply pmos_vth l=45e-9 w=360e-9
 m1 out a net40 vsupply pmos_vth l=45e-9 w=360e-9
 m0 net40 net16 vsupply vsupply pmos_vth l=45e-9 w=360e-9
 m7 net39 a vground vground nmos_vth l=45e-9 w=90e-9
 m6 net38 net24 vground vground nmos_vth l=45e-9 w=90e-9
 m5 out net16 net38 vground nmos_vth l=45e-9 w=90e-9
 m2 out b net39 vground nmos_vth l=45e-9 w=90e-9
 xi7 b net16 vground vsupply inv1
 xi6 a net24 vground vsupply inv1
 .ends xor2
 ** end of subcircuit definition.

 ** library name: ece8893_lib
 ** cell name: nand2
 ** view name: schematic
 .subckt nand2 a b out vground vsupply
 m1 out a vsupply vsupply pmos_vth l=45e-9 w=360e-9
 m0 out b vsupply vsupply pmos_vth l=45e-9 w=360e-9
 m3 net22 b vground vground nmos_vth l=45e-9 w=157.5e-9
 m2 out a net22 vground nmos_vth l=45e-9 w=157.5e-9
 .ends nand2
 ** end of subcircuit definition.

 ** library name: ece8893_lib
 ** cell name: and2
 ** view name: schematic
 .subckt and2 a b out vground vsupply
 xi0 a b net13 vground vsupply nand2
 xi6 net13 out vground vsupply inv1
 .ends and2
 ** end of subcircuit definition.

 ** library name: ece8893_lib
 ** cell name: nor2
 ** view name: schematic
 .subckt nor2 a b out vground vsupply
 m1 net13 a vsupply vsupply pmos_vth l=45e-9 w=360e-9
 m0 out b net13 net13 pmos_vth l=45e-9 w=360e-9
 m3 out a vground vground nmos_vth l=45e-9 w=157.5e-9
 m2 out b vground vground nmos_vth l=45e-9 w=157.5e-9
 .ends nor2
 ** end of subcircuit definition.

 ** library name: ece8893_lib
 ** cell name: and3
 ** view name: schematic
 .subckt and3 a b c out vground vsupply
 xi0 a b net13 vground vsupply nand2
 xi2 c net12 vground vsupply inv1
 xi3 net13 net12 out vground vsupply nor2
 .ends and3
 ** end of subcircuit definition.

 ** library name: ece8893_lib
 ** cell name: and4
 ** view name: schematic
 .subckt and4 a b c d out vground vsupply
 xi3 c d net14 vground vsupply nand2
 xi0 a b net13 vground vsupply nand2
 xi4 net13 net14 out vground vsupply nor2
 .ends and4
 ** end of subcircuit definition.

 ** library name: ece8893_lib
 ** cell name: and5
 ** view name: schematic
 .subckt and5 a b c d e out vground vsupply
 xi3 c d net14 vground vsupply nand2
 xi5 net010 e net011 vground vsupply nand2
 xi0 a b net13 vground vsupply nand2
 xi6 net011 out vground vsupply inv1
 xi4 net13 net14 net010 vground vsupply nor2
 .ends and5
 ** end of subcircuit definition.

 ** library name: ece8893_lib
 ** cell name: or5
 ** view name: schematic
 .subckt or5 a b c d e out vground vsupply
 xi4 net09 e net010 vground vsupply nor2
 xi3 c d net05 vground vsupply nor2
 xi0 a b net9 vground vsupply nor2
 xi1 net010 out vground vsupply inv1
 xi2 net9 net05 net09 vground vsupply nand2
 .ends or5
 ** end of subcircuit definition.

 ** library name: ece8893_lib
 ** cell name: or4
 ** view name: schematic
 .subckt or4 a b c d out vground vsupply
 xi3 c d net05 vground vsupply nor2
 xi0 a b net9 vground vsupply nor2
 xi2 net9 net05 out vground vsupply nand2
 .ends or4
 ** end of subcircuit definition.

 ** library name: ece8893_lib
 ** cell name: or3
 ** view name: schematic
 .subckt or3 a b c out vground vsupply
 xi0 a b net9 vground vsupply nor2
 xi1 c net05 vground vsupply inv1
 xi2 net9 net05 out vground vsupply nand2
 .ends or3
 ** end of subcircuit definition.

 ** library name: ece8893_lib
 ** cell name: or2
 ** view name: schematic
 .subckt or2 a b out vground vsupply
 xi0 a b net9 vground vsupply nor2
 xi1 net9 out vground vsupply inv1
 .ends or2
 ** end of subcircuit definition.

 ** library name: ece8893_lib
 ** cell name: cla_4bits
 ** view name: schematic
 .subckt cla_4bits a0 a1 a2 a3 b0 b1 b2 b3 c0 cout s0 s1 s2 s3 vground vsupply
 xi10 a1 b1 p1 vground vsupply xor2
 xi8 a0 b0 p0 vground vsupply xor2
 xi7 c0 p0 s0 vground vsupply xor2
 xi6 c1 p1 s1 vground vsupply xor2
 xi4 a2 b2 p2 vground vsupply xor2
 xi2 c2 p2 s2 vground vsupply xor2
 xi3 c3 p3 s3 vground vsupply xor2
 xi0 a3 b3 p3 vground vsupply xor2
 xi20 g2 p3 net3 vground vsupply and2
 xi32 a1 b1 g1 vground vsupply and2
 xi17 c0 p0 net18 vground vsupply and2
 xi18 g0 p1 net13 vground vsupply and2
 xi19 g1 p2 net8 vground vsupply and2
 xi31 a0 b0 g0 vground vsupply and2
 xi34 a2 b2 g2 vground vsupply and2
 xi33 a3 b3 g3 vground vsupply and2
 xi23 c0 p0 p1 net22 vground vsupply and3
 xi22 g0 p1 p2 net28 vground vsupply and3
 xi21 g1 p2 p3 net65 vground vsupply and3
 xi25 g0 p1 p2 p3 net66 vground vsupply and4
 xi24 c0 p0 p1 p2 net47 vground vsupply and4
 xi26 c0 p0 p1 p2 p3 net54 vground vsupply and5
 xi27 g3 net3 net65 net66 net54 cout vground vsupply or5
 xi28 g2 net8 net28 net47 c3 vground vsupply or4
 xi29 g1 net13 net22 c2 vground vsupply or3
 xi30 net18 g0 c1 vground vsupply or2
 .ends cla_4bits
 ** end of subcircuit definition.

 ** library name: ece8893_lib
 ** cell name: cla_8bits
 ** view name: schematic
 xi1 a4 a5 a6 a7 b4 b5 b6 b7 cin cout s4 s5 s6 s7 vground vsupply cla_4bits
 xi0 a0 a1 a2 a3 b0 b1 b2 b3 c0 cin s0 s1 s2 s3 vground vsupply cla_4bits
 .include "period_sweep.sp"
 .tran 1.280000e-10 2.560000e-07 start=0.0

 .meas tran iavg avg i(vvcc) from=0 to=2.560000e-07
 .meas tran vavg avg v(vcc) from=0 to=2.560000e-07
 .meas tran etot param='iavg*vavg*2.560000e-07'

 vvground vground 0 dc=vss
 vvsupply vsupply 0 dc=vcc
 vc0 c0 0 dc=vcc
 vb0 b0 0 pulse vcc 0 0 0 0 6.400000e-08 1.280000e-07
 va0 a0 0 dc=vss
 vb1 b1 0 pulse vcc 0 0 0 0 3.200000e-08 6.400000e-08
 va1 a1 0 dc=vcc
 vb2 b2 0 pulse vcc 0 0 0 0 1.600000e-08 3.200000e-08
 va2 a2 0 dc=vss
 vb3 b3 0 pulse vcc 0 0 0 0 8.000000e-09 1.600000e-08
 va3 a3 0 dc=vcc
 vb4 b4 0 pulse vcc 0 0 0 0 4.000000e-09 8.000000e-09
 va4 a4 0 dc=vss
 vb5 b5 0 pulse vcc 0 0 0 0 2.000000e-09 4.000000e-09
 va5 a5 0 dc=vcc
 vb6 b6 0 pulse vcc 0 0 0 0 1.000000e-09 2.000000e-09
 va6 a6 0 dc=vss
 vb7 b7 0 pulse vcc 0 0 0 0 5.000000e-10 1.000000e-09
 va7 a7 0 dc=vcc
 .end
 lic: Using FLEXlm license file: 
 lic: 1900@ecelinsrv3.ece.gatech.edu 
 lic: Checkout 1 cdsaawaves 
 lic: License/Maintenance for cdsaawaves will expire on 12-jan-2016/2014.09 
 lic: FLOATING license(s) on SERVER ecelinsrv3.ece.gatech.edu 
 lic:   

 ***********************************************************************
 ** runlvl is invoked, you can disable it by:
      a) Add option runlvl=0 to your current simulation job.
      b) Copy $installdir/hspice.ini to your HOME directory and
         customize it by adding option runlvl=0, which disables
         it for all of your simulation jobs.
      c) Re-invoke $installdir/bin/config program and unselect the
         option runlvl setting in box 'hspice.ini' which disables
         it for whole group simulation jobs.

 ** runlvl is invoked, some options are ignored or automatically set:
      Options below are automatically set(user setting will overwrite them):
      if runlvl=[1|2|3|4|5|6],  .option bypass=2

      Options below are ignored, they are replaced by automated algorithms:
        lvltim    dvdt      ft    fast   trtol  absvar  relvar
          relq  chgtol    dvtr    imin    itl3    rmax

 ** runlvl is invoked, actual option value used by HSPICE are:
       runlvl= 3       bypass= 2      mbypass=   2.00   bytol= 100.00u
 ***********************************************************************

1****** HSPICE -- B-2008.09 32-BIT (Aug 26 2008) linux ******                   
 ******  
 ** generated for: hspiced

  ******  circuit name directory
 circuit number to circuit name directory
   number circuitname                     definition         multiplier
        0 main circuit
        1 xi1.                            cla_4bits          1.00 
        2 xi0.                            cla_4bits          1.00 
        3 xi1.xi10.                       xor2               1.00 
        4 xi1.xi8.                        xor2               1.00 
        5 xi1.xi7.                        xor2               1.00 
        6 xi1.xi6.                        xor2               1.00 
        7 xi1.xi4.                        xor2               1.00 
        8 xi1.xi2.                        xor2               1.00 
        9 xi1.xi3.                        xor2               1.00 
       10 xi1.xi0.                        xor2               1.00 
       11 xi1.xi20.                       and2               1.00 
       12 xi1.xi32.                       and2               1.00 
       13 xi1.xi17.                       and2               1.00 
       14 xi1.xi18.                       and2               1.00 
       15 xi1.xi19.                       and2               1.00 
       16 xi1.xi31.                       and2               1.00 
       17 xi1.xi34.                       and2               1.00 
       18 xi1.xi33.                       and2               1.00 
       19 xi1.xi23.                       and3               1.00 
       20 xi1.xi22.                       and3               1.00 
       21 xi1.xi21.                       and3               1.00 
       22 xi1.xi25.                       and4               1.00 
       23 xi1.xi24.                       and4               1.00 
       24 xi1.xi26.                       and5               1.00 
       25 xi1.xi27.                       or5                1.00 
       26 xi1.xi28.                       or4                1.00 
       27 xi1.xi29.                       or3                1.00 
       28 xi1.xi30.                       or2                1.00 
       29 xi0.xi10.                       xor2               1.00 
       30 xi0.xi8.                        xor2               1.00 
       31 xi0.xi7.                        xor2               1.00 
       32 xi0.xi6.                        xor2               1.00 
       33 xi0.xi4.                        xor2               1.00 
       34 xi0.xi2.                        xor2               1.00 
       35 xi0.xi3.                        xor2               1.00 
       36 xi0.xi0.                        xor2               1.00 
       37 xi0.xi20.                       and2               1.00 
       38 xi0.xi32.                       and2               1.00 
       39 xi0.xi17.                       and2               1.00 
       40 xi0.xi18.                       and2               1.00 
       41 xi0.xi19.                       and2               1.00 
       42 xi0.xi31.                       and2               1.00 
       43 xi0.xi34.                       and2               1.00 
       44 xi0.xi33.                       and2               1.00 
       45 xi0.xi23.                       and3               1.00 
       46 xi0.xi22.                       and3               1.00 
       47 xi0.xi21.                       and3               1.00 
       48 xi0.xi25.                       and4               1.00 
       49 xi0.xi24.                       and4               1.00 
       50 xi0.xi26.                       and5               1.00 
       51 xi0.xi27.                       or5                1.00 
       52 xi0.xi28.                       or4                1.00 
       53 xi0.xi29.                       or3                1.00 
       54 xi0.xi30.                       or2                1.00 
       55 xi1.xi10.xi7.                   inv1               1.00 
       56 xi1.xi10.xi6.                   inv1               1.00 
       57 xi1.xi8.xi7.                    inv1               1.00 
       58 xi1.xi8.xi6.                    inv1               1.00 
       59 xi1.xi7.xi7.                    inv1               1.00 
       60 xi1.xi7.xi6.                    inv1               1.00 
       61 xi1.xi6.xi7.                    inv1               1.00 
       62 xi1.xi6.xi6.                    inv1               1.00 
       63 xi1.xi4.xi7.                    inv1               1.00 
       64 xi1.xi4.xi6.                    inv1               1.00 
       65 xi1.xi2.xi7.                    inv1               1.00 
       66 xi1.xi2.xi6.                    inv1               1.00 
       67 xi1.xi3.xi7.                    inv1               1.00 
       68 xi1.xi3.xi6.                    inv1               1.00 
       69 xi1.xi0.xi7.                    inv1               1.00 
       70 xi1.xi0.xi6.                    inv1               1.00 
       71 xi1.xi20.xi0.                   nand2              1.00 
       72 xi1.xi20.xi6.                   inv1               1.00 
       73 xi1.xi32.xi0.                   nand2              1.00 
       74 xi1.xi32.xi6.                   inv1               1.00 
       75 xi1.xi17.xi0.                   nand2              1.00 
       76 xi1.xi17.xi6.                   inv1               1.00 
       77 xi1.xi18.xi0.                   nand2              1.00 
       78 xi1.xi18.xi6.                   inv1               1.00 
       79 xi1.xi19.xi0.                   nand2              1.00 
       80 xi1.xi19.xi6.                   inv1               1.00 
       81 xi1.xi31.xi0.                   nand2              1.00 
       82 xi1.xi31.xi6.                   inv1               1.00 
       83 xi1.xi34.xi0.                   nand2              1.00 
       84 xi1.xi34.xi6.                   inv1               1.00 
       85 xi1.xi33.xi0.                   nand2              1.00 
       86 xi1.xi33.xi6.                   inv1               1.00 
       87 xi1.xi23.xi0.                   nand2              1.00 
       88 xi1.xi23.xi2.                   inv1               1.00 
       89 xi1.xi23.xi3.                   nor2               1.00 
       90 xi1.xi22.xi0.                   nand2              1.00 
       91 xi1.xi22.xi2.                   inv1               1.00 
       92 xi1.xi22.xi3.                   nor2               1.00 
       93 xi1.xi21.xi0.                   nand2              1.00 
       94 xi1.xi21.xi2.                   inv1               1.00 
       95 xi1.xi21.xi3.                   nor2               1.00 
       96 xi1.xi25.xi3.                   nand2              1.00 
       97 xi1.xi25.xi0.                   nand2              1.00 
       98 xi1.xi25.xi4.                   nor2               1.00 
       99 xi1.xi24.xi3.                   nand2              1.00 
      100 xi1.xi24.xi0.                   nand2              1.00 
      101 xi1.xi24.xi4.                   nor2               1.00 
      102 xi1.xi26.xi3.                   nand2              1.00 
      103 xi1.xi26.xi5.                   nand2              1.00 
      104 xi1.xi26.xi0.                   nand2              1.00 
      105 xi1.xi26.xi6.                   inv1               1.00 
      106 xi1.xi26.xi4.                   nor2               1.00 
      107 xi1.xi27.xi4.                   nor2               1.00 
      108 xi1.xi27.xi3.                   nor2               1.00 
      109 xi1.xi27.xi0.                   nor2               1.00 
      110 xi1.xi27.xi1.                   inv1               1.00 
      111 xi1.xi27.xi2.                   nand2              1.00 
      112 xi1.xi28.xi3.                   nor2               1.00 
      113 xi1.xi28.xi0.                   nor2               1.00 
      114 xi1.xi28.xi2.                   nand2              1.00 
      115 xi1.xi29.xi0.                   nor2               1.00 
      116 xi1.xi29.xi1.                   inv1               1.00 
      117 xi1.xi29.xi2.                   nand2              1.00 
      118 xi1.xi30.xi0.                   nor2               1.00 
      119 xi1.xi30.xi1.                   inv1               1.00 
      120 xi0.xi10.xi7.                   inv1               1.00 
      121 xi0.xi10.xi6.                   inv1               1.00 
      122 xi0.xi8.xi7.                    inv1               1.00 
      123 xi0.xi8.xi6.                    inv1               1.00 
      124 xi0.xi7.xi7.                    inv1               1.00 
      125 xi0.xi7.xi6.                    inv1               1.00 
      126 xi0.xi6.xi7.                    inv1               1.00 
      127 xi0.xi6.xi6.                    inv1               1.00 
      128 xi0.xi4.xi7.                    inv1               1.00 
      129 xi0.xi4.xi6.                    inv1               1.00 
      130 xi0.xi2.xi7.                    inv1               1.00 
      131 xi0.xi2.xi6.                    inv1               1.00 
      132 xi0.xi3.xi7.                    inv1               1.00 
      133 xi0.xi3.xi6.                    inv1               1.00 
      134 xi0.xi0.xi7.                    inv1               1.00 
      135 xi0.xi0.xi6.                    inv1               1.00 
      136 xi0.xi20.xi0.                   nand2              1.00 
      137 xi0.xi20.xi6.                   inv1               1.00 
      138 xi0.xi32.xi0.                   nand2              1.00 
      139 xi0.xi32.xi6.                   inv1               1.00 
      140 xi0.xi17.xi0.                   nand2              1.00 
      141 xi0.xi17.xi6.                   inv1               1.00 
      142 xi0.xi18.xi0.                   nand2              1.00 
      143 xi0.xi18.xi6.                   inv1               1.00 
      144 xi0.xi19.xi0.                   nand2              1.00 
      145 xi0.xi19.xi6.                   inv1               1.00 
      146 xi0.xi31.xi0.                   nand2              1.00 
      147 xi0.xi31.xi6.                   inv1               1.00 
      148 xi0.xi34.xi0.                   nand2              1.00 
      149 xi0.xi34.xi6.                   inv1               1.00 
      150 xi0.xi33.xi0.                   nand2              1.00 
      151 xi0.xi33.xi6.                   inv1               1.00 
      152 xi0.xi23.xi0.                   nand2              1.00 
      153 xi0.xi23.xi2.                   inv1               1.00 
      154 xi0.xi23.xi3.                   nor2               1.00 
      155 xi0.xi22.xi0.                   nand2              1.00 
      156 xi0.xi22.xi2.                   inv1               1.00 
      157 xi0.xi22.xi3.                   nor2               1.00 
      158 xi0.xi21.xi0.                   nand2              1.00 
      159 xi0.xi21.xi2.                   inv1               1.00 
      160 xi0.xi21.xi3.                   nor2               1.00 
      161 xi0.xi25.xi3.                   nand2              1.00 
      162 xi0.xi25.xi0.                   nand2              1.00 
      163 xi0.xi25.xi4.                   nor2               1.00 
      164 xi0.xi24.xi3.                   nand2              1.00 
      165 xi0.xi24.xi0.                   nand2              1.00 
      166 xi0.xi24.xi4.                   nor2               1.00 
      167 xi0.xi26.xi3.                   nand2              1.00 
      168 xi0.xi26.xi5.                   nand2              1.00 
      169 xi0.xi26.xi0.                   nand2              1.00 
      170 xi0.xi26.xi6.                   inv1               1.00 
      171 xi0.xi26.xi4.                   nor2               1.00 
      172 xi0.xi27.xi4.                   nor2               1.00 
      173 xi0.xi27.xi3.                   nor2               1.00 
      174 xi0.xi27.xi0.                   nor2               1.00 
      175 xi0.xi27.xi1.                   inv1               1.00 
      176 xi0.xi27.xi2.                   nand2              1.00 
      177 xi0.xi28.xi3.                   nor2               1.00 
      178 xi0.xi28.xi0.                   nor2               1.00 
      179 xi0.xi28.xi2.                   nand2              1.00 
      180 xi0.xi29.xi0.                   nor2               1.00 
      181 xi0.xi29.xi1.                   inv1               1.00 
      182 xi0.xi29.xi2.                   nand2              1.00 
      183 xi0.xi30.xi0.                   nor2               1.00 
      184 xi0.xi30.xi1.                   inv1               1.00 


 circuit parameter definitions
  parameter          =  value 

     0:etot                                                    =   0.           
     0:iavg                                                    =   0.           
     0:vavg                                                    =   0.           
     0:vcc                                                     = 1.000e+00      
     0:vss                                                     =   0.           




 constants  - tnom         kt           vt           gapsi        ni
            2.981e+02    4.116e-21    2.569e-02    1.115e+00    1.256e+16  
1****** HSPICE -- B-2008.09 32-BIT (Aug 26 2008) linux ******                   
 ******  
 ** generated for: hspiced

  ******  mos   model parameters tnom=  25.000 temp=  25.000 *****
 
Model Name: nmos_vth  

 BSIM4 Model (Level 54)

    MOBMOD = 0
    BINUNIT = 1
    PARAMCHK = 1
    CAPMOD = 2
    DIOMOD = 1
    RDSMOD = 0
    TRNQSMOD = 0
    ACNQSMOD = 0
    RBODYMOD = 1
    RGATEMOD = 1
    PERMOD = 1
    GEOMOD = 1
    RGEOMOD = 0
    FNOIMOD = 1
    TNOIMOD = 0
    IGCMOD = 1
    IGBMOD = 1
    STIMOD = 0
    VERSION =      4 
    TOXREF = 2.55e-09 
    TOXE = 2.55e-09 
    TOXP = 1.9e-09 
    TOXM = 2.55e-09 
    DTOX = 6.5e-10 
    EPSROX =    3.9 
    CDSC =      0 
    CDSCB =      0 
    CDSCD =      0 
    CIT =      0 
    NFACTOR =    2.1 
    XJ = 1.4e-08 
    VSAT = 1.474e+05 
    A0 =      1 
    AGS =  1e-20 
    A1 =      0 
    A2 =      1 
    AT = 3.3e+04 
    KETA =   0.04 
    NSUB =  6e+16 
    NDEP = 4.46e+18 
    NSD =  2e+20 
    NGATE =  2e+20 
    GAMMA1 =      0 
    GAMMA2 =      0 
    VBX =      0 
    VBM =     -3 
    XT = 1.55e-07 
    K1 =  0.898 
    KT1 =  -0.11 
    KT1L =      0 
    KT2 =  0.022 
    K2 =   0.01 
    K3 =      0 
    K3B =      0 
    LPE0 =      0 
    LPEB =      0 
    DVTP0 =  1e-09 
    DVTP1 =    0.1 
    W0 = 2.5e-06 
    DVT0 =      1 
    DVT1 =      2 
    DVT2 = -0.032 
    DVT0W =      0 
    DVT1W =      0 
    DVT2W =      0 
    DROUT =    0.5 
    DSUB =    0.1 
    VTH0 =  0.853 
    EU =   1.67 
    UA =  6e-10 
    UA1 = 4.31e-09 
    UB = 1.2e-18 
    UB1 = 7.61e-18 
    UC =      0 
    UC1 = -5.6e-11 
    U0 = 0.03723 
    UTE =   -1.5 
    VOFF =  -0.13 
    VOFFL =      0 
    MINV =   0.05 
    FPROUT =    0.2 
    PDITS =   0.08 
    PDITSD =   0.23 
    PDITSL = 2.3e+06 
    DELTA =   0.01 
    RDSW =    155 
    RDSWMIN =      0 
    RDWMIN =      0 
    RSWMIN =      0 
    RDW =     85 
    RSW =     85 
    PRWG =      0 
    PRWB = 6.8e-11 
    PRT =      0 
    ETA0 = 0.0049 
    ETAB =      0 
    PCLM =   0.04 
    PDIBLC1 =  0.001 
    PDIBLC2 =  0.001 
    PDIBLCB = -0.005 
    PSCBE1 = 8.14e+08 
    PSCBE2 =  1e-07 
    PVAG =  1e-20 
    WR =      1 
    DWG =      0 
    DWB =      0 
    XW =      0 
    XWREF =      0 
    XL = -2e-08 
    XLREF = -2e-08 
    B0 =      0 
    B1 =      0 
    ALPHA0 =  0.074 
    ALPHA1 =  0.005 
    AGIDL = 0.0002 
    BGIDL = 2.1e+09 
    CGIDL = 0.0002 
    PHIN =      0 
    EGIDL =    0.8 
    AIGC =  0.012 
    BIGC = 0.0028 
    CIGC =  0.002 
    AIGSD =  0.012 
    BIGSD = 0.0028 
    CIGSD =  0.002 
    AIGBACC =  0.012 
    BIGBACC = 0.0028 
    CIGBACC =  0.002 
    AIGBINV =  0.014 
    BIGBINV =  0.004 
    CIGBINV =  0.004 
    NIGC =      1 
    NIGBINV =      3 
    NIGBACC =      1 
    NTOX =      1 
    EIGBINV =    1.1 
    PIGCD =      1 
    POXEDGE =      1 
    XRCRG1 =     12 
    TNOIA =    1.5 
    TNOIB =    3.5 
    NTNOI =      1 
    XRCRG2 =      5 
    BETA0 =     30 
    IJTHDFWD =   0.01 
    IJTHSFWD =   0.01 
    IJTHDREV =  0.001 
    IJTHSREV =  0.001 
    XJBVD =      1 
    XJBVS =      1 
    BVD =     10 
    BVS =     10 
    VFB =  -0.55 
    GBMIN =  1e-10 
    RBDB =     15 
    RBPB =      5 
    RBSB =     15 
    RBPS =     15 
    RBPD =     15 
    CGSL = 2.653e-10 
    CGDL = 2.653e-10 
    CKAPPAS =   0.03 
    CKAPPAD =   0.03 
    CF = 1.113e-10 
    CLC =  1e-07 
    CLE =    0.6 
    DWC =  5e-09 
    DLC = 3.75e-09 
    DLCIG = 3.75e-09 
    DWJ =      0 
    VFBCV =     -1 
    ACDE =      1 
    MOIN =     15 
    NOFF =    0.9 
    VOFFCV =   0.02 
    DMCG =      0 
    DMCI =      0 
    DMDG =      0 
    DMCGT =      0 
    XGW =      0 
    XGL =      0 
    RSHG =    0.4 
    NGCON =      1 
    TCJ =  0.001 
    TPB =  0.005 
    TCJSW =  0.001 
    TPBSW =  0.005 
    TCJSWG =  0.001 
    TPBSWG =  0.005 
    SK0 =      0 
    SK1 =      0 
    SK2 =      0 
    SL =  2e-06 
    SW =  2e-06 
    K =      0 
    TNOM =  300.1 
    CGSO = 1.1e-10 
    CGDO = 1.1e-10 
    CGBO = 2.56e-11 
    XPART =      0 
    RSH =      5 
    JSS = 0.0001 
    JSWS =  1e-11 
    JSWGS =  1e-10 
    PBS =      1 
    MJS =    0.5 
    PBSWS =      1 
    MJSWS =   0.33 
    CJS = 0.0005 
    CJSWS =  5e-10 
    NJS =      1 
    PBSWGS =      1 
    MJSWGS =   0.33 
    CJSWGS =  3e-10 
    XTIS =      3 
    JSD = 0.0001 
    JSWD =  1e-11 
    JSWGD =  1e-10 
    PBD =      1 
    MJD =    0.5 
    PBSWD =      1 
    MJSWD =   0.33 
    CJD = 0.0005 
    CJSWD =  5e-10 
    NJD =      1 
    PBSWGD =      1 
    MJSWGD =   0.33 
    CJSWGD =  5e-10 
    XTID =      3 
    LMLT =      1 
    WMLT =      1 
    LINT = 3.75e-09 
    LL =      0 
    LLC =      0 
    LLN =      1 
    LW =      0 
    LWC =      0 
    LWN =      1 
    LWL =      0 
    LWLC =      0 
    LMIN =      0 
    LMAX =      1 
    WINT =  5e-09 
    WL =      0 
    WLC =      0 
    WLN =      1 
    WW =      0 
    WWC =      0 
    WWN =      1 
    WWL =      0 
    WWLC =      0 
    WMIN =      0 
    WMAX =      1 
    NOIA = 6.25e+41 
    NOIB = 3.125e+26 
    NOIC = 8.75e+09 
    EM = 4.1e+07 
    EF =      1 
    AF =      1 
    KF =      0 
    TRS =      0 
    TRD =      0 
 

 
Model Name: pmos_vth  

 BSIM4 Model (Level 54)

    MOBMOD = 0
    BINUNIT = 1
    PARAMCHK = 1
    CAPMOD = 2
    DIOMOD = 1
    RDSMOD = 0
    TRNQSMOD = 0
    ACNQSMOD = 0
    RBODYMOD = 1
    RGATEMOD = 1
    PERMOD = 1
    GEOMOD = 1
    RGEOMOD = 0
    FNOIMOD = 1
    TNOIMOD = 0
    IGCMOD = 1
    IGBMOD = 1
    STIMOD = 0
    VERSION =      4 
    TOXREF = 2.65e-09 
    TOXE = 2.65e-09 
    TOXP = 1.9e-09 
    TOXM = 2.65e-09 
    DTOX = 7.5e-10 
    EPSROX =    3.9 
    CDSC =      0 
    CDSCB =      0 
    CDSCD =      0 
    CIT =      0 
    NFACTOR =    2.1 
    XJ = 1.4e-08 
    VSAT =  7e+04 
    A0 =      1 
    AGS =  1e-20 
    A1 =      0 
    A2 =      1 
    AT = 3.3e+04 
    KETA = -0.047 
    NSUB =  6e+16 
    NDEP = 3.51e+18 
    NSD =  2e+20 
    NGATE =  2e+20 
    GAMMA1 =      0 
    GAMMA2 =      0 
    VBX =      0 
    VBM =     -3 
    XT = 1.55e-07 
    K1 =  0.828 
    KT1 =  -0.11 
    KT1L =      0 
    KT2 =  0.022 
    K2 =  -0.01 
    K3 =      0 
    K3B =      0 
    LPE0 =      0 
    LPEB =      0 
    DVTP0 =  1e-09 
    DVTP1 =   0.05 
    W0 = 2.5e-06 
    DVT0 =      1 
    DVT1 =      2 
    DVT2 = -0.032 
    DVT0W =      0 
    DVT1W =      0 
    DVT2W =      0 
    DROUT =   0.56 
    DSUB =    0.1 
    VTH0 = -0.771 
    EU =      1 
    UA =  2e-09 
    UA1 = 4.31e-09 
    UB =  5e-19 
    UB1 = 7.61e-18 
    UC =      0 
    UC1 = -5.6e-11 
    U0 = 0.00304 
    UTE =   -1.5 
    VOFF = -0.126 
    VOFFL =      0 
    MINV =   0.05 
    FPROUT =    0.2 
    PDITS =   0.08 
    PDITSD =   0.23 
    PDITSL = 2.3e+06 
    DELTA =   0.01 
    RDSW =    155 
    RDSWMIN =      0 
    RDWMIN =      0 
    RSWMIN =      0 
    RDW =     85 
    RSW =     85 
    PRWG = 3.22e-08 
    PRWB = 6.8e-11 
    PRT =      0 
    ETA0 = 0.0049 
    ETAB =      0 
    PCLM =   0.12 
    PDIBLC1 =  0.001 
    PDIBLC2 =  0.001 
    PDIBLCB = 3.4e-08 
    PSCBE1 = 8.14e+08 
    PSCBE2 = 9.58e-07 
    PVAG =  1e-20 
    WR =      1 
    DWG =      0 
    DWB =      0 
    XW =      0 
    XWREF =      0 
    XL = -2e-08 
    XLREF = -2e-08 
    B0 = -1e-20 
    B1 =      0 
    ALPHA0 =  0.074 
    ALPHA1 =  0.005 
    AGIDL = 0.0002 
    BGIDL = 2.1e+09 
    CGIDL = 0.0002 
    PHIN =      0 
    EGIDL =    0.8 
    AIGC =   0.69 
    BIGC = 0.0012 
    CIGC = 0.0008 
    AIGSD = 0.0087 
    BIGSD = 0.0012 
    CIGSD = 0.0008 
    AIGBACC =  0.012 
    BIGBACC = 0.0028 
    CIGBACC =  0.002 
    AIGBINV =  0.014 
    BIGBINV =  0.004 
    CIGBINV =  0.004 
    NIGC =      1 
    NIGBINV =      3 
    NIGBACC =      1 
    NTOX =      1 
    EIGBINV =    1.1 
    PIGCD =      1 
    POXEDGE =      1 
    XRCRG1 =     12 
    TNOIA =    1.5 
    TNOIB =    3.5 
    NTNOI =      1 
    XRCRG2 =      5 
    BETA0 =     30 
    IJTHDFWD =   0.01 
    IJTHSFWD =   0.01 
    IJTHDREV =  0.001 
    IJTHSREV =  0.001 
    XJBVD =      1 
    XJBVS =      1 
    BVD =     10 
    BVS =     10 
    VFB =   0.55 
    GBMIN =  1e-10 
    RBDB =     15 
    RBPB =      5 
    RBSB =     15 
    RBPS =     15 
    RBPD =     15 
    CGSL = 2.653e-10 
    CGDL = 2.653e-10 
    CKAPPAS =   0.03 
    CKAPPAD =   0.03 
    CF = 1.104e-10 
    CLC =  1e-07 
    CLE =    0.6 
    DWC =  5e-09 
    DLC = 3.75e-09 
    DLCIG = 3.75e-09 
    DWJ =      0 
    VFBCV =     -1 
    ACDE =      1 
    MOIN =     15 
    NOFF =    0.9 
    VOFFCV =   0.02 
    DMCG =      0 
    DMCI =      0 
    DMDG =      0 
    DMCGT =      0 
    XGW =      0 
    XGL =      0 
    RSHG =    0.4 
    NGCON =      1 
    TCJ =  0.001 
    TPB =  0.005 
    TCJSW =  0.001 
    TPBSW =  0.005 
    TCJSWG =  0.001 
    TPBSWG =  0.005 
    SK0 =      0 
    SK1 =      0 
    SK2 =      0 
    SL =  2e-06 
    SW =  2e-06 
    K =      0 
    TNOM =  300.1 
    CGSO = 1.1e-10 
    CGDO = 1.1e-10 
    CGBO = 2.56e-11 
    XPART =      0 
    RSH =      5 
    JSS = 0.0001 
    JSWS =  1e-11 
    JSWGS =  1e-10 
    PBS =      1 
    MJS =    0.5 
    PBSWS =      1 
    MJSWS =   0.33 
    CJS = 0.0005 
    CJSWS =  5e-10 
    NJS =      1 
    PBSWGS =      1 
    MJSWGS =   0.33 
    CJSWGS =  3e-10 
    XTIS =      3 
    JSD = 0.0001 
    JSWD =  1e-11 
    JSWGD =  1e-10 
    PBD =      1 
    MJD =    0.5 
    PBSWD =      1 
    MJSWD =   0.33 
    CJD = 0.0005 
    CJSWD =  5e-10 
    NJD =      1 
    PBSWGD =      1 
    MJSWGD =   0.33 
    CJSWGD =  5e-10 
    XTID =      3 
    LMLT =      1 
    WMLT =      1 
    LINT = 3.75e-09 
    LL =      0 
    LLC =      0 
    LLN =      1 
    LW =      0 
    LWC =      0 
    LWN =      1 
    LWL =      0 
    LWLC =      0 
    LMIN =      0 
    LMAX =      1 
    WINT =  5e-09 
    WL =      0 
    WLC =      0 
    WLN =      1 
    WW =      0 
    WWC =      0 
    WWN =      1 
    WWL =      0 
    WWLC =      0 
    WMIN =      0 
    WMAX =      1 
    NOIA = 6.188e+40 
    NOIB = 1.5e+25 
    NOIC = 8.75e+09 
    EM = 4.1e+07 
    EF =      1 
    AF =      1 
    KF =      0 
    TRS =      0 
    TRD =      0 
 


 **warning** dc voltage reset to initial transient source value
             in source        0:vb0                 new dc=  0.1000D+01


 *** warning *** pulse rise time is  < or = zero, reset to tstep


 *** warning *** pulse fall time is  < or = zero, reset to tstep


 **warning** dc voltage reset to initial transient source value
             in source        0:vb1                 new dc=  0.1000D+01


 *** warning *** pulse rise time is  < or = zero, reset to tstep


 *** warning *** pulse fall time is  < or = zero, reset to tstep


 **warning** dc voltage reset to initial transient source value
             in source        0:vb2                 new dc=  0.1000D+01


 *** warning *** pulse rise time is  < or = zero, reset to tstep


 *** warning *** pulse fall time is  < or = zero, reset to tstep


 **warning** dc voltage reset to initial transient source value
             in source        0:vb3                 new dc=  0.1000D+01


 *** warning *** pulse rise time is  < or = zero, reset to tstep


 *** warning *** pulse fall time is  < or = zero, reset to tstep


 **warning** dc voltage reset to initial transient source value
             in source        0:vb4                 new dc=  0.1000D+01


 *** warning *** pulse rise time is  < or = zero, reset to tstep


 *** warning *** pulse fall time is  < or = zero, reset to tstep


 **warning** dc voltage reset to initial transient source value
             in source        0:vb5                 new dc=  0.1000D+01


 *** warning *** pulse rise time is  < or = zero, reset to tstep


 *** warning *** pulse fall time is  < or = zero, reset to tstep


 **warning** dc voltage reset to initial transient source value
             in source        0:vb6                 new dc=  0.1000D+01


 *** warning *** pulse rise time is  < or = zero, reset to tstep


 *** warning *** pulse fall time is  < or = zero, reset to tstep


 **warning** dc voltage reset to initial transient source value
             in source        0:vb7                 new dc=  0.1000D+01


 *** warning *** pulse rise time is  < or = zero, reset to tstep


 *** warning *** pulse fall time is  < or = zero, reset to tstep

 Warning:  Acde = 1 may be too small in BSIM4 model nmos_vth with w=9e-08 l=4.5e-08.

 Warning: (B1 + Weff) may be too small in BSIM4 model nmos_vth with w=9e-08 l=4.5e-08.

 Warning:  Acde = 1 may be too small in BSIM4 model nmos_vth with w=1.575e-07 l=4.5e-08.

 Warning:  Acde = 1 may be too small in BSIM4 model pmos_vth with w=3.6e-07 l=4.5e-08.

 **warning** could not find branch element     0:vvcc            
      branch - output ignored
 **warning**  attempt to reference undefined node     0:vcc             
  in the definition of v(vcc,0)
   branch - output ignored

1****** HSPICE -- B-2008.09 32-BIT (Aug 26 2008) linux ******                   
 ******  
 ** generated for: hspiced

  ******  circuit element summary tnom=  25.000 temp=  25.000 *****


 **** independent sources

     name         node1        node2      dc volt    ac mag    ac phase    type
        0:vvground       0:vground                0:0                   0.         0.         0.      dc   
        0:vvsupply       0:vsupply                0:0                 1.000e+00    0.         0.      dc   
        0:vc0       0:c0                     0:0                 1.000e+00    0.         0.      dc   
        0:vb0       0:b0                     0:0                 1.000e+00    0.         0.      pulse
             initial value   1.000e+00
             pulsed value.     0.     
             delay time...     0.     
             risetime.....   1.280e-10
             falltime.....   1.280e-10
             width........   6.400e-08
             period.......   1.280e-07

        0:va0       0:a0                     0:0                   0.         0.         0.      dc   
        0:vb1       0:b1                     0:0                 1.000e+00    0.         0.      pulse
             initial value   1.000e+00
             pulsed value.     0.     
             delay time...     0.     
             risetime.....   1.280e-10
             falltime.....   1.280e-10
             width........   3.200e-08
             period.......   6.400e-08

        0:va1       0:a1                     0:0                 1.000e+00    0.         0.      dc   
        0:vb2       0:b2                     0:0                 1.000e+00    0.         0.      pulse
             initial value   1.000e+00
             pulsed value.     0.     
             delay time...     0.     
             risetime.....   1.280e-10
             falltime.....   1.280e-10
             width........   1.600e-08
             period.......   3.200e-08

        0:va2       0:a2                     0:0                   0.         0.         0.      dc   
        0:vb3       0:b3                     0:0                 1.000e+00    0.         0.      pulse
             initial value   1.000e+00
             pulsed value.     0.     
             delay time...     0.     
             risetime.....   1.280e-10
             falltime.....   1.280e-10
             width........   8.000e-09
             period.......   1.600e-08

        0:va3       0:a3                     0:0                 1.000e+00    0.         0.      dc   
        0:vb4       0:b4                     0:0                 1.000e+00    0.         0.      pulse
             initial value   1.000e+00
             pulsed value.     0.     
             delay time...     0.     
             risetime.....   1.280e-10
             falltime.....   1.280e-10
             width........   4.000e-09
             period.......   8.000e-09

        0:va4       0:a4                     0:0                   0.         0.         0.      dc   
        0:vb5       0:b5                     0:0                 1.000e+00    0.         0.      pulse
             initial value   1.000e+00
             pulsed value.     0.     
             delay time...     0.     
             risetime.....   1.280e-10
             falltime.....   1.280e-10
             width........   2.000e-09
             period.......   4.000e-09

        0:va5       0:a5                     0:0                 1.000e+00    0.         0.      dc   
        0:vb6       0:b6                     0:0                 1.000e+00    0.         0.      pulse
             initial value   1.000e+00
             pulsed value.     0.     
             delay time...     0.     
             risetime.....   1.280e-10
             falltime.....   1.280e-10
             width........   1.000e-09
             period.......   2.000e-09

        0:va6       0:a6                     0:0                   0.         0.         0.      dc   
        0:vb7       0:b7                     0:0                 1.000e+00    0.         0.      pulse
             initial value   1.000e+00
             pulsed value.     0.     
             delay time...     0.     
             risetime.....   1.280e-10
             falltime.....   1.280e-10
             width........   5.000e-10
             period.......   1.000e-09

        0:va7       0:a7                     0:0                 1.000e+00    0.         0.      dc   


 **** mosfets


 **** BSIM4 Model (Level 54)
  
 
[...]
  cgtot      1.800e-16    1.800e-16    2.640e-16    9.782e-17    4.281e-16
  cstot      2.294e-16    2.294e-16    4.243e-16    1.281e-16    4.826e-16
  cbtot      2.242e-16    2.242e-16    4.709e-16    1.278e-16    5.098e-16
  cgs        7.851e-17    7.851e-17    1.369e-16    4.258e-17    2.347e-16
  cgd        9.903e-17    9.903e-17    8.683e-17    5.371e-17    1.873e-16



 subckt     xi0.xi26.x   xi0.xi26.x   xi0.xi26.x   xi0.xi27.x   xi0.xi27.x
 element  171:m0       171:m3       171:m2       172:m1       172:m0      
 model      0:pmos_vth   0:nmos_vth   0:nmos_vth   0:pmos_vth   0:pmos_vth
 region         Cutoff       Cutoff       Linear       Cutoff       Cutoff
  id        -3.662e-11    1.736e-17    2.381e-10   -5.958e-12   -1.734e-09
  ibs       -8.664e-22   -7.357e-23   -3.078e-22   -4.350e-22    6.059e-22
  ibd        1.010e-12   -1.151e-18   -1.361e-18    6.542e-13    3.658e-13
  vgs        6.638e-06   -1.652e-06    1.000e+00   -1.088e-07   -3.558e-01
  vds       -1.000e-00    2.498e-06    2.498e-06   -6.442e-01   -3.558e-01
  vbs          0.           0.           0.           0.           0.     
  vth       -5.334e-01    8.497e-01    8.496e-01   -6.157e-01   -6.823e-01
  vdsat     -4.335e-02    3.771e-02    1.099e-01   -4.344e-02   -4.366e-02
  vod        5.334e-01   -8.497e-01    1.504e-01    6.157e-01    3.265e-01
  beta       4.485e-04    2.821e-03    2.663e-03    4.159e-04    3.923e-04
  gam eff    8.280e-01    8.980e-01    8.980e-01    8.280e-01    8.280e-01
  gm         7.401e-10    1.003e-15    4.505e-08    1.207e-10    3.411e-08
  gds        1.881e-10    2.105e-11    2.469e-04    3.042e-11    8.737e-09
  gmb        3.954e-10    6.901e-16    2.392e-08    6.696e-11    1.634e-08
  cdtot      2.300e-16    1.364e-16    1.623e-16    2.434e-16    2.995e-16
  cgtot      2.640e-16    1.343e-16    1.800e-16    2.679e-16    3.359e-16
  cstot      4.243e-16    1.836e-16    2.294e-16    4.243e-16    4.516e-16
  cbtot      4.709e-16    2.230e-16    2.242e-16    4.804e-16    4.849e-16
  cgs        1.369e-16    5.780e-17    7.849e-17    1.369e-16    1.642e-16
  cgd        8.683e-17    5.780e-17    9.903e-17    9.073e-17    1.369e-16



 subckt     xi0.xi27.x   xi0.xi27.x   xi0.xi27.x   xi0.xi27.x   xi0.xi27.x
 element  172:m3       172:m2       173:m1       173:m0       173:m3      
 model      0:nmos_vth   0:nmos_vth   0:pmos_vth   0:pmos_vth   0:nmos_vth
 region         Linear       Cutoff       Linear       Linear       Cutoff
  id         1.107e-09    9.429e-17   -7.568e-11   -7.910e-11    3.453e-11
  ibs       -1.779e-23    1.036e-23    1.176e-22    1.520e-22    4.678e-23
  ibd       -6.253e-18   -6.253e-18    1.347e-18    1.405e-18   -1.010e-12
  vgs        1.000e-00   -2.766e-05   -1.000e+00   -1.000e-00   -6.852e-08
  vds        5.225e-06    5.225e-06   -2.318e-06   -2.826e-06    1.000e-00
  vbs          0.           0.           0.           0.           0.     
  vth        8.496e-01    8.496e-01   -7.646e-01   -7.646e-01    6.515e-01
  vdsat      1.100e-01    3.771e-02   -2.172e-01   -2.172e-01    3.684e-02
  vod        1.504e-01   -8.497e-01   -2.354e-01   -2.354e-01   -6.515e-01
  beta       2.663e-03    2.822e-03    3.715e-04    3.715e-04    3.352e-03
  gam eff    8.980e-01    8.980e-01    8.280e-01    8.280e-01    8.980e-01
  gm         5.062e-08    1.852e-14    5.357e-09    4.424e-09    6.735e-10
  gds        2.470e-04    2.104e-11    7.841e-05    7.840e-05    1.433e-10
  gmb        2.688e-08    1.274e-14    2.513e-09    2.075e-09    4.232e-10
  cdtot      1.623e-16    1.364e-16    4.324e-16    4.324e-16    9.934e-17
  cgtot      1.800e-16    1.343e-16    4.281e-16    4.281e-16    1.132e-16
  cstot      2.294e-16    1.835e-16    4.826e-16    4.826e-16    1.836e-16
  cbtot      2.242e-16    2.230e-16    5.098e-16    5.098e-16    2.070e-16
  cgs        7.849e-17    5.780e-17    2.347e-16    2.347e-16    5.780e-17
  cgd        9.904e-17    5.781e-17    1.873e-16    1.873e-16    3.672e-17



 subckt     xi0.xi27.x   xi0.xi27.x   xi0.xi27.x   xi0.xi27.x   xi0.xi27.x
 element  173:m2       174:m1       174:m0       174:m3       174:m2      
 model      0:nmos_vth   0:pmos_vth   0:pmos_vth   0:nmos_vth   0:nmos_vth
 region         Cutoff       Cutoff       Cutoff       Linear       Cutoff
  id         3.453e-11   -5.198e-12   -3.343e-09    2.123e-09   -3.880e-17
  ibs        5.272e-23   -5.016e-21    6.861e-21    7.648e-22   -1.209e-22
  ibd       -1.010e-12    6.274e-13    3.926e-13   -1.202e-17    2.541e-18
  vgs       -2.686e-07   -1.137e-05   -3.826e-01    1.000e-00   -1.114e-05
  vds        1.000e-00   -6.174e-01   -3.826e-01   -7.497e-06   -7.497e-06
  vbs          0.           0.           0.           0.           0.     
  vth        6.515e-01   -6.219e-01   -6.762e-01    8.497e-01    8.497e-01
  vdsat      3.684e-02   -4.345e-02   -4.378e-02    1.099e-01    3.771e-02
  vod       -6.515e-01    6.218e-01    2.936e-01    1.503e-01   -8.497e-01
  beta       3.352e-03    4.136e-04    3.944e-04    2.663e-03    2.821e-03
  gam eff    8.980e-01    8.280e-01    8.280e-01    8.980e-01    8.980e-01
  gm         6.735e-10    1.053e-10    6.506e-08    3.872e-08    1.919e-15
  gds        1.433e-10    2.656e-11    1.664e-08    2.468e-04    2.106e-11
  gmb        4.232e-10    5.860e-11    3.064e-08    2.056e-08    1.320e-15
  cdtot      9.934e-17    2.447e-16    2.984e-16    1.822e-16    1.364e-16
  cgtot      1.132e-16    2.684e-16    3.362e-16    1.800e-16    1.343e-16
  cstot      1.836e-16    4.243e-16    4.522e-16    2.094e-16    1.836e-16
  cbtot      2.070e-16    4.812e-16    4.836e-16    2.242e-16    2.230e-16
  cgs        5.780e-17    1.369e-16    1.648e-16    9.903e-17    5.781e-17
  cgd        3.672e-17    9.121e-17    1.369e-16    7.849e-17    5.781e-17



 subckt     xi0.xi27.x   xi0.xi27.x   xi0.xi27.x   xi0.xi27.x   xi0.xi27.x
 element  175:m1       175:m3       176:m1       176:m0       176:m3      
 model      0:pmos_vth   0:nmos_vth   0:pmos_vth   0:pmos_vth   0:nmos_vth
 region         Linear       Cutoff       Linear       Cutoff       Linear
  id        -4.331e-11    1.872e-11   -2.639e-10    1.395e-16    3.650e-11
  ibs        3.808e-22    1.389e-22    3.067e-22    8.212e-22   -3.074e-22
  ibd        7.673e-19   -1.010e-12    4.680e-18   -2.479e-17   -2.055e-19
  vgs       -1.000e-00    5.225e-06   -1.000e+00   -5.144e-06    1.000e-00
  vds       -2.174e-06    1.000e-00   -1.088e-07   -1.088e-07   -5.517e-07
  vbs          0.           0.           0.           0.           0.     
  vth       -7.646e-01    6.515e-01   -7.646e-01   -7.646e-01    8.497e-01
  vdsat     -2.172e-01    3.682e-02   -2.172e-01   -4.358e-02    1.100e-01
  vod       -2.354e-01   -6.515e-01   -2.354e-01    7.646e-01    1.503e-01
  beta       3.715e-04    1.818e-03    3.715e-04    3.660e-04    2.663e-03
  gam eff    8.280e-01    8.980e-01    8.280e-01    8.280e-01    8.980e-01
  gm         1.157e-09    3.652e-10    7.686e-09    3.881e-16    1.190e-09
  gds        7.841e-05    7.771e-11    7.841e-05    7.808e-12    2.470e-04
  gmb        5.428e-10    2.295e-10    3.605e-09    2.321e-16    6.321e-10
  cdtot      3.748e-16    5.570e-17    4.324e-16    3.165e-16    1.823e-16
  cgtot      4.281e-16    6.160e-17    4.281e-16    3.140e-16    1.800e-16
  cstot      5.402e-16    1.032e-16    4.826e-16    4.243e-16    2.094e-16
  cbtot      5.098e-16    1.180e-16    5.098e-16    5.074e-16    2.242e-16
  cgs        1.873e-16    3.135e-17    2.347e-16    1.369e-16    9.902e-17
  cgd        2.347e-16    1.991e-17    1.873e-16    1.369e-16    7.851e-17



 subckt     xi0.xi27.x   xi0.xi28.x   xi0.xi28.x   xi0.xi28.x   xi0.xi28.x
 element  176:m2       177:m1       177:m0       177:m3       177:m2      
 model      0:nmos_vth   0:pmos_vth   0:pmos_vth   0:nmos_vth   0:nmos_vth
 region         Cutoff       Linear       Linear       Cutoff       Cutoff
  id         3.452e-11   -7.555e-11   -7.624e-11    3.452e-11    3.453e-11
  ibs       -3.472e-19    8.727e-23    1.068e-22    2.067e-23    2.762e-23
  ibd       -1.010e-12    1.341e-18    1.357e-18   -1.010e-12   -1.010e-12
  vgs       -6.946e-06   -1.000e+00   -1.000e-00   -3.543e-06   -3.549e-07
  vds        1.000e+00   -1.614e-06   -1.534e-06    1.000e-00    1.000e-00
  vbs        5.517e-07      0.           0.           0.           0.     
  vth        6.515e-01   -7.646e-01   -7.646e-01    6.515e-01    6.515e-01
  vdsat      3.684e-02   -2.172e-01   -2.172e-01    3.684e-02    3.684e-02
  vod       -6.515e-01   -2.354e-01   -2.354e-01   -6.515e-01   -6.515e-01
  beta       3.352e-03    3.715e-04    3.715e-04    3.352e-03    3.352e-03
  gam eff    8.980e-01    8.280e-01    8.280e-01    8.980e-01    8.980e-01
  gm         6.731e-10    3.829e-09    9.483e-09    6.734e-10    6.735e-10
  gds        1.432e-10    7.841e-05    7.839e-05    1.433e-10    1.433e-10
  gmb        4.230e-10    1.796e-09    4.448e-09    4.232e-10    4.232e-10
  cdtot      9.934e-17    4.324e-16    4.324e-16    9.934e-17    9.934e-17
  cgtot      1.132e-16    4.281e-16    4.281e-16    1.132e-16    1.132e-16
  cstot      1.836e-16    4.826e-16    4.826e-16    1.836e-16    1.836e-16
  cbtot      2.070e-16    5.098e-16    5.098e-16    2.070e-16    2.070e-16
  cgs        5.780e-17    2.347e-16    2.347e-16    5.780e-17    5.780e-17
  cgd        3.672e-17    1.873e-16    1.873e-16    3.672e-17    3.672e-17



 subckt     xi0.xi28.x   xi0.xi28.x   xi0.xi28.x   xi0.xi28.x   xi0.xi28.x
 element  178:m1       178:m0       178:m3       178:m2       179:m1      
 model      0:pmos_vth   0:pmos_vth   0:nmos_vth   0:nmos_vth   0:pmos_vth
 region         Linear       Cutoff       Cutoff       Linear       Linear
  id        -3.088e-11   -3.663e-11    3.275e-18    3.859e-11   -6.498e-11
  ibs       -4.426e-24    6.099e-23    5.841e-23   -3.032e-23    6.239e-22
  ibd        5.674e-19    1.010e-12   -2.189e-19   -2.190e-19    1.155e-18
  vgs       -1.000e-00   -1.113e-06    1.965e-07    1.000e+00   -1.000e+00
  vds        1.206e-06   -1.000e+00   -1.010e-06   -1.010e-06   -3.471e-06
  vbs          0.           0.           0.           0.           0.     
  vth       -7.646e-01   -5.334e-01    8.497e-01    8.497e-01   -7.646e-01
  vdsat     -2.173e-01   -4.335e-02    3.771e-02    1.100e-01   -2.172e-01
  vod       -2.354e-01    5.334e-01   -8.497e-01    1.503e-01   -2.354e-01
  beta       3.715e-04    4.485e-04    2.822e-03    2.663e-03    3.715e-04
  gam eff    8.280e-01    8.280e-01    8.980e-01    8.980e-01    8.280e-01
  gm         9.129e-09    7.401e-10    5.771e-15    1.578e-08    4.816e-10
  gds        7.845e-05    1.881e-10    2.105e-11    2.470e-04    7.841e-05
  gmb        4.282e-09    3.954e-10    3.970e-15    8.378e-09    2.259e-10
  cdtot      3.749e-16    2.300e-16    1.364e-16    1.623e-16    4.324e-16
  cgtot      4.281e-16    2.640e-16    1.343e-16    1.800e-16    4.281e-16
  cstot      5.402e-16    4.243e-16    1.836e-16    2.294e-16    4.826e-16
  cbtot      5.098e-16    4.709e-16    2.230e-16    2.242e-16    5.098e-16
  cgs        1.873e-16    1.369e-16    5.780e-17    7.850e-17    2.347e-16
  cgd        2.347e-16    8.683e-17    5.781e-17    9.903e-17    1.873e-16



 subckt     xi0.xi28.x   xi0.xi28.x   xi0.xi28.x   xi0.xi29.x   xi0.xi29.x
 element  179:m0       179:m3       179:m2       180:m1       180:m0      
 model      0:pmos_vth   0:nmos_vth   0:nmos_vth   0:pmos_vth   0:pmos_vth
 region         Cutoff       Linear       Cutoff       Cutoff       Cutoff
  id        -6.465e-18    3.551e-11    3.453e-11   -7.030e-12   -7.747e-10
  ibs        3.163e-22   -1.958e-22   -5.724e-20    1.538e-22    3.203e-23
  ibd        1.155e-18   -2.004e-19   -1.010e-12    6.867e-13    3.333e-13
  vgs       -3.148e-06    1.000e-00   -1.954e-06    4.346e-06   -3.233e-01
  vds       -3.471e-06    9.444e-07    1.000e-00   -6.767e-01   -3.233e-01
  vbs          0.           0.        -9.444e-07      0.           0.     
  vth       -7.646e-01    8.497e-01    6.515e-01   -6.082e-01   -6.899e-01
  vdsat     -4.358e-02    1.100e-01    3.684e-02   -4.344e-02   -4.358e-02
  vod        7.646e-01    1.503e-01   -6.515e-01    6.082e-01    3.665e-01
  beta       3.660e-04    2.663e-03    3.352e-03    4.187e-04    3.897e-04
  gam eff    8.280e-01    8.980e-01    8.980e-01    8.280e-01    8.280e-01
  gm         2.313e-16    5.086e-10    6.734e-10    1.424e-10    1.538e-08
  gds        7.808e-12    2.470e-04    1.433e-10    3.587e-11    3.946e-09
  gmb        1.383e-16    2.701e-10    4.232e-10    7.873e-11    7.518e-09
  cdtot      3.165e-16    1.823e-16    9.934e-17    2.419e-16    3.008e-16
  cgtot      3.140e-16    1.800e-16    1.132e-16    2.674e-16    3.354e-16
  cstot      4.243e-16    2.094e-16    1.836e-16    4.243e-16    4.506e-16
  cbtot      5.074e-16    2.242e-16    2.070e-16    4.794e-16    4.866e-16
  cgs        1.369e-16    9.902e-17    5.780e-17    1.369e-16    1.632e-16
  cgd        1.369e-16    7.851e-17    3.672e-17    9.020e-17    1.369e-16



 subckt     xi0.xi29.x   xi0.xi29.x   xi0.xi29.x   xi0.xi29.x   xi0.xi29.x
 element  180:m3       180:m2       181:m1       181:m3       182:m1      
 model      0:nmos_vth   0:nmos_vth   0:pmos_vth   0:nmos_vth   0:pmos_vth
 region         Linear       Cutoff       Linear       Cutoff       Linear
  id         5.217e-10   -1.330e-17   -2.304e-11    1.872e-11   -6.113e-11
  ibs       -8.456e-22    1.538e-22    1.692e-22    4.658e-23    6.448e-23
  ibd       -2.958e-18    7.949e-19    4.093e-19   -1.010e-12    1.072e-18
  vgs        1.000e+00   -8.361e-06   -1.000e+00   -1.584e-06   -1.000e+00
  vds       -3.425e-06   -3.425e-06   -9.331e-07    1.000e-00    5.854e-06
  vbs          0.           0.           0.           0.           0.     
  vth        8.497e-01    8.497e-01   -7.646e-01    6.515e-01   -7.646e-01
  vdsat      1.099e-01    3.771e-02   -2.172e-01    3.682e-02   -2.172e-01
  vod        1.503e-01   -8.497e-01   -2.354e-01   -6.515e-01   -2.354e-01
  beta       2.663e-03    2.821e-03    3.715e-04    1.818e-03    3.715e-04
  gam eff    8.980e-01    8.980e-01    8.280e-01    8.980e-01    8.280e-01
  gm         5.247e-09    9.638e-16    1.457e-09    3.652e-10    7.292e-10
  gds        2.469e-04    2.106e-11    7.841e-05    7.769e-11    7.841e-05
  gmb        2.786e-09    6.630e-16    6.833e-10    2.295e-10    3.420e-10
  cdtot      1.823e-16    1.364e-16    4.324e-16    5.570e-17    4.324e-16
  cgtot      1.800e-16    1.343e-16    4.281e-16    6.160e-17    4.281e-16
  cstot      2.094e-16    1.836e-16    4.826e-16    1.032e-16    4.826e-16
  cbtot      2.242e-16    2.230e-16    5.098e-16    1.180e-16    5.098e-16
  cgs        9.903e-17    5.781e-17    2.347e-16    3.135e-17    2.347e-16
  cgd        7.850e-17    5.781e-17    1.873e-16    1.991e-17    1.873e-16



 subckt     xi0.xi29.x   xi0.xi29.x   xi0.xi29.x   xi0.xi30.x   xi0.xi30.x
 element  182:m0       182:m3       182:m2       183:m1       183:m0      
 model      0:pmos_vth   0:nmos_vth   0:nmos_vth   0:pmos_vth   0:pmos_vth
 region         Cutoff       Linear       Cutoff       Cutoff       Cutoff
  id        -6.069e-18    3.599e-11    3.453e-11   -8.110e-12   -3.844e-10
  ibs       -9.585e-22   -4.052e-22   -1.457e-19    6.526e-22   -1.029e-21
  ibd        1.071e-18   -2.031e-19   -1.010e-12    7.147e-13    3.053e-13
  vgs       -9.331e-07    1.000e-00   -2.369e-06    4.925e-06   -2.953e-01
  vds        5.854e-06   -1.056e-06    1.000e+00   -7.047e-01   -2.953e-01
  vbs          0.           0.         1.056e-06      0.           0.     
  vth       -7.646e-01    8.497e-01    6.515e-01   -6.017e-01   -6.963e-01
  vdsat     -4.358e-02    1.100e-01    3.684e-02   -4.343e-02   -4.356e-02
  vod        7.646e-01    1.503e-01   -6.515e-01    6.017e-01    4.010e-01
  beta       3.660e-04    2.663e-03    3.352e-03    4.211e-04    3.876e-04
  gam eff    8.280e-01    8.980e-01    8.980e-01    8.280e-01    8.280e-01
  gm         3.503e-16    9.030e-09    6.737e-10    1.642e-10    7.687e-09
  gds        7.808e-12    2.470e-04    1.433e-10    4.137e-11    1.978e-09
  gmb        2.095e-16    4.796e-09    4.233e-10    9.057e-11    3.826e-09
  cdtot      3.165e-16    1.623e-16    9.934e-17    2.406e-16    3.019e-16
  cgtot      3.140e-16    1.800e-16    1.132e-16    2.670e-16    3.348e-16
  cstot      4.243e-16    2.294e-16    1.836e-16    4.243e-16    4.497e-16
  cbtot      5.074e-16    2.242e-16    2.070e-16    4.786e-16    4.881e-16
  cgs        1.369e-16    7.850e-17    5.781e-17    1.369e-16    1.623e-16
  cgd        1.369e-16    9.903e-17    3.672e-17    8.979e-17    1.369e-16



 subckt     xi0.xi30.x   xi0.xi30.x   xi0.xi30.x   xi0.xi30.x
 element  183:m3       183:m2       184:m1       184:m3      
 model      0:nmos_vth   0:nmos_vth   0:pmos_vth   0:nmos_vth
 region         Linear       Cutoff       Linear       Cutoff
  id         3.413e-10    2.638e-17   -3.857e-11    1.872e-11
  ibs       -2.567e-21   -1.856e-22    8.217e-22   -1.318e-23
  ibd       -2.013e-18   -2.009e-18    6.846e-19   -1.010e-12
  vgs        1.000e+00    4.705e-06   -1.000e-00    3.435e-06
  vds        3.435e-06    3.435e-06    1.042e-06    1.000e+00
  vbs          0.           0.           0.           0.     
  vth        8.496e-01    8.496e-01   -7.646e-01    6.515e-01
  vdsat      1.100e-01    3.771e-02   -2.172e-01    3.682e-02
  vod        1.504e-01   -8.496e-01   -2.354e-01   -6.515e-01
  beta       2.663e-03    2.822e-03    3.715e-04    1.818e-03
  gam eff    8.980e-01    8.980e-01    8.280e-01    8.980e-01
  gm         3.650e-08    1.337e-14    1.748e-09    3.649e-10
  gds        2.470e-04    2.107e-11    7.842e-05    7.765e-11
  gmb        1.938e-08    9.197e-15    8.200e-10    2.293e-10
  cdtot      1.623e-16    1.364e-16    4.324e-16    5.570e-17
  cgtot      1.800e-16    1.343e-16    4.281e-16    6.160e-17
  cstot      2.294e-16    1.836e-16    4.826e-16    1.032e-16
  cbtot      2.242e-16    2.230e-16    5.098e-16    1.180e-16
  cgs        7.850e-17    5.781e-17    2.347e-16    3.135e-17
  cgd        9.904e-17    5.781e-17    1.873e-16    1.991e-17




          ***** job concluded
1****** HSPICE -- B-2008.09 32-BIT (Aug 26 2008) linux ******                   
 ******  
 ** generated for: hspiced

  ******  job statistics summary tnom=  25.000 temp=  25.000 *****

  ******  HSPICE Threads Information  ******
  Command Line Threads Count:                      2
  Available CPU Count:                             2
  Actual Model Evaluation(Load) Threads Count:     2
  Actual Solver Threads Count:                     1


  ******  Circuit Statistics  ******
  # nodes       =    2394  # elements   =     543
  # resistors   =       0  # capacitors =       0  # inductors   =       0
  # mutual_inds =       0  # vccs       =       0  # vcvs        =       0
  # cccs        =       0  # ccvs       =       0  # volt_srcs   =      19
  # curr_srcs   =       0  # diodes     =       0  # bjts        =       0
  # jfets       =       0  # mosfets    =     524  # U elements  =       0
  # T elements  =       0  # W elements =       0  # B elements  =       0
  # S elements  =       0  # P elements =       0  # va device   =       0


  ******  Runtime Statistics (seconds)  ******

  analysis           time    # points   tot. iter  conv.iter
  op point           0.41           1          94
  transient         72.81        2001       56553       17360 rev=         7
  readin             0.04
  errchk             0.13
  setup              0.03
  output             0.00


           total memory used         3386  kbytes
           total cpu time           73.54 seconds
           total elapsed time          74 seconds
           job started at     22:08:59 04/15/2015
           job ended   at     22:10:13 04/15/2015


 Init: hspice initialization file: /tools/linsoft2/synopsys/hspice/hspice/hspice.ini
 lic: Release cdsaawaves token(s) 
 lic: Release hspice token(s) 
